data_image0
_chemical_formula_structural       OH2
_chemical_formula_sum              "O1 H2"
_cell_length_a       13
_cell_length_b       13
_cell_length_c       13
_cell_angle_alpha    90
_cell_angle_beta     90
_cell_angle_gamma    90

_space_group_name_H-M_alt    "P 1"
_space_group_IT_number       1

loop_
  _space_group_symop_operation_xyz
  'x, y, z'

loop_
  _atom_site_type_symbol
  _atom_site_label
  _atom_site_symmetry_multiplicity
  _atom_site_fract_x
  _atom_site_fract_y
  _atom_site_fract_z
  _atom_site_occupancy
  O   O1        1.0  0.24174  0.09757  0.65301  1.0000
  H   H1        1.0  0.23891  0.02344  0.66252  1.0000
  H   H2        1.0  0.31000  0.11705  0.67653  1.0000
data_image1
_chemical_formula_structural       OH
_chemical_formula_sum              "O1 H1"
_cell_length_a       13
_cell_length_b       13
_cell_length_c       13
_cell_angle_alpha    90
_cell_angle_beta     90
_cell_angle_gamma    90

_space_group_name_H-M_alt    "P 1"
_space_group_IT_number       1

loop_
  _space_group_symop_operation_xyz
  'x, y, z'

loop_
  _atom_site_type_symbol
  _atom_site_label
  _atom_site_symmetry_multiplicity
  _atom_site_fract_x
  _atom_site_fract_y
  _atom_site_fract_z
  _atom_site_occupancy
  O   O1        1.0  0.50141  0.53725  0.49521  1.0000
  H   H1        1.0  0.49859  0.46275  0.50479  1.0000
data_image2
_chemical_formula_structural       Ce4O9H2
_chemical_formula_sum              "Ce4 O9 H2"
_cell_length_a       3.87986
_cell_length_b       3.87986
_cell_length_c       41.4073
_cell_angle_alpha    90
_cell_angle_beta     90
_cell_angle_gamma    120

_space_group_name_H-M_alt    "P 1"
_space_group_IT_number       1

loop_
  _space_group_symop_operation_xyz
  'x, y, z'

loop_
  _atom_site_type_symbol
  _atom_site_label
  _atom_site_symmetry_multiplicity
  _atom_site_fract_x
  _atom_site_fract_y
  _atom_site_fract_z
  _atom_site_occupancy
  Ce  Ce1       1.0  0.88926  0.74732  0.40636  1.0000
  Ce  Ce2       1.0  0.55668  0.08144  0.48299  1.0000
  Ce  Ce3       1.0  0.22221  0.41345  0.33031  1.0000
  Ce  Ce4       1.0  0.21950  0.41310  0.55924  1.0000
  O   O1        1.0  0.37130  0.47415  0.62533  1.0000
  O   O2        1.0  0.90013  0.75350  0.57776  1.0000
  O   O3        1.0  0.55596  0.08064  0.42548  1.0000
  O   O4        1.0  0.88979  0.74803  0.46385  1.0000
  O   O5        1.0  0.88902  0.74693  0.34963  1.0000
  O   O6        1.0  0.55544  0.08008  0.31157  1.0000
  O   O7        1.0  0.55861  0.08269  0.53997  1.0000
  O   O8        1.0  0.22317  0.41492  0.50235  1.0000
  O   O9        1.0  0.22229  0.41370  0.38686  1.0000
  H   H1        1.0  0.32295  0.22422  0.63498  1.0000
  H   H2        1.0  0.64230  0.59616  0.61551  1.0000
data_image3
_chemical_formula_structural       Ce4O9H2
_chemical_formula_sum              "Ce4 O9 H2"
_cell_length_a       3.87986
_cell_length_b       3.87986
_cell_length_c       41.4073
_cell_angle_alpha    90
_cell_angle_beta     90
_cell_angle_gamma    120

_space_group_name_H-M_alt    "P 1"
_space_group_IT_number       1

loop_
  _space_group_symop_operation_xyz
  'x, y, z'

loop_
  _atom_site_type_symbol
  _atom_site_label
  _atom_site_symmetry_multiplicity
  _atom_site_fract_x
  _atom_site_fract_y
  _atom_site_fract_z
  _atom_site_occupancy
  Ce  Ce1       1.0  0.90248  0.74454  0.40759  1.0000
  Ce  Ce2       1.0  0.56918  0.07813  0.48418  1.0000
  Ce  Ce3       1.0  0.23691  0.41164  0.33151  1.0000
  Ce  Ce4       1.0  0.23702  0.40933  0.56111  1.0000
  O   O1        1.0  0.21973  0.43053  0.61530  1.0000
  O   O2        1.0  0.90303  0.74328  0.57960  1.0000
  O   O3        1.0  0.56944  0.07856  0.42672  1.0000
  O   O4        1.0  0.90222  0.74421  0.46506  1.0000
  O   O5        1.0  0.90279  0.74459  0.35085  1.0000
  O   O6        1.0  0.57003  0.07870  0.31280  1.0000
  O   O7        1.0  0.56870  0.07769  0.54171  1.0000
  O   O8        1.0  0.23614  0.41098  0.50333  1.0000
  O   O9        1.0  0.23666  0.41164  0.38811  1.0000
  H   H1        1.0  0.30724  0.30954  0.63161  1.0000
  H   H2        1.0  0.90314  0.72835  0.60322  1.0000
data_image4
_chemical_formula_structural       Ce8O18H4
_chemical_formula_sum              "Ce8 O18 H4"
_cell_length_a       3.87986
_cell_length_b       7.75972
_cell_length_c       41.4073
_cell_angle_alpha    90
_cell_angle_beta     90
_cell_angle_gamma    120

_space_group_name_H-M_alt    "P 1"
_space_group_IT_number       1

loop_
  _space_group_symop_operation_xyz
  'x, y, z'

loop_
  _atom_site_type_symbol
  _atom_site_label
  _atom_site_symmetry_multiplicity
  _atom_site_fract_x
  _atom_site_fract_y
  _atom_site_fract_z
  _atom_site_occupancy
  Ce  Ce1       1.0  0.45509  0.08207  0.35536  1.0000
  Ce  Ce2       1.0  0.46648  0.09370  0.58369  1.0000
  Ce  Ce3       1.0  0.12114  0.24813  0.43146  1.0000
  Ce  Ce4       1.0  0.79061  0.41779  0.50762  1.0000
  Ce  Ce5       1.0  0.45493  0.58195  0.35540  1.0000
  Ce  Ce6       1.0  0.45052  0.57770  0.58528  1.0000
  Ce  Ce7       1.0  0.12212  0.74911  0.43128  1.0000
  Ce  Ce8       1.0  0.78628  0.91344  0.50819  1.0000
  O   O1        1.0  0.45594  0.08290  0.41208  1.0000
  O   O2        1.0  0.46213  0.08940  0.52833  1.0000
  O   O3        1.0  0.59274  0.21994  0.64257  1.0000
  O   O4        1.0  0.78834  0.41538  0.33673  1.0000
  O   O5        1.0  0.12089  0.24781  0.37466  1.0000
  O   O6        1.0  0.79089  0.41802  0.45068  1.0000
  O   O7        1.0  0.11619  0.24337  0.48833  1.0000
  O   O8        1.0  0.81474  0.44191  0.56592  1.0000
  O   O9        1.0  0.11272  0.23994  0.59395  1.0000
  O   O10       1.0  0.45390  0.58097  0.41173  1.0000
  O   O11       1.0  0.44814  0.57527  0.52556  1.0000
  O   O12       1.0  0.38454  0.51169  0.64191  1.0000
  O   O13       1.0  0.78804  0.91504  0.33663  1.0000
  O   O14       1.0  0.12233  0.74933  0.37471  1.0000
  O   O15       1.0  0.78563  0.91264  0.45028  1.0000
  O   O16       1.0  0.12701  0.75406  0.48924  1.0000
  O   O17       1.0  0.76604  0.89324  0.56477  1.0000
  O   O18       1.0  0.14260  0.76978  0.60924  1.0000
  H   H1        1.0  0.88532  0.31169  0.64538  1.0000
  H   H2        1.0  0.48340  0.31160  0.64539  1.0000
  H   H3        1.0  0.47464  0.60185  0.66034  1.0000
  H   H4        1.0  0.11248  0.73959  0.63227  1.0000
data_image5
_chemical_formula_structural       Ce8O18H4
_chemical_formula_sum              "Ce8 O18 H4"
_cell_length_a       3.87986
_cell_length_b       7.75972
_cell_length_c       41.4073
_cell_angle_alpha    90
_cell_angle_beta     90
_cell_angle_gamma    120

_space_group_name_H-M_alt    "P 1"
_space_group_IT_number       1

loop_
  _space_group_symop_operation_xyz
  'x, y, z'

loop_
  _atom_site_type_symbol
  _atom_site_label
  _atom_site_symmetry_multiplicity
  _atom_site_fract_x
  _atom_site_fract_y
  _atom_site_fract_z
  _atom_site_occupancy
  Ce  Ce1       1.0  0.21009  0.21885  0.33117  1.0000
  Ce  Ce2       1.0  0.87651  0.88531  0.40716  1.0000
  Ce  Ce3       1.0  0.54319  0.55248  0.48387  1.0000
  Ce  Ce4       1.0  0.20433  0.21683  0.55977  1.0000
  Ce  Ce5       1.0  0.87681  0.38548  0.40722  1.0000
  Ce  Ce6       1.0  0.54357  0.05183  0.48372  1.0000
  Ce  Ce7       1.0  0.20758  0.71849  0.56031  1.0000
  Ce  Ce8       1.0  0.20998  0.71876  0.33115  1.0000
  O   O1        1.0  0.54316  0.55193  0.31243  1.0000
  O   O2        1.0  0.87675  0.88540  0.35045  1.0000
  O   O3        1.0  0.20995  0.21878  0.38773  1.0000
  O   O4        1.0  0.54388  0.55256  0.42634  1.0000
  O   O5        1.0  0.87678  0.88602  0.46478  1.0000
  O   O6        1.0  0.21315  0.22075  0.50324  1.0000
  O   O7        1.0  0.54520  0.55691  0.54129  1.0000
  O   O8        1.0  0.90178  0.89484  0.57919  1.0000
  O   O9        1.0  0.37933  0.30555  0.62708  1.0000
  O   O10       1.0  0.54331  0.05186  0.31245  1.0000
  O   O11       1.0  0.87662  0.38533  0.35047  1.0000
  O   O12       1.0  0.54273  0.05156  0.42625  1.0000
  O   O13       1.0  0.87644  0.38485  0.46456  1.0000
  O   O14       1.0  0.54452  0.04852  0.54025  1.0000
  O   O15       1.0  0.86979  0.38214  0.57778  1.0000
  O   O16       1.0  0.35832  0.70888  0.62501  1.0000
  O   O17       1.0  0.20627  0.71681  0.50305  1.0000
  O   O18       1.0  0.20979  0.71857  0.38766  1.0000
  H   H1        1.0  0.33496  0.19871  0.64186  1.0000
  H   H2        1.0  0.63579  0.34486  0.61558  1.0000
  H   H3        1.0  0.33779  0.58196  0.63111  1.0000
  H   H4        1.0  0.63582  0.79234  0.61712  1.0000
data_image6
_chemical_formula_structural       Ce8O18H4
_chemical_formula_sum              "Ce8 O18 H4"
_cell_length_a       3.87986
_cell_length_b       7.75972
_cell_length_c       41.4073
_cell_angle_alpha    90
_cell_angle_beta     90
_cell_angle_gamma    120

_space_group_name_H-M_alt    "P 1"
_space_group_IT_number       1

loop_
  _space_group_symop_operation_xyz
  'x, y, z'

loop_
  _atom_site_type_symbol
  _atom_site_label
  _atom_site_symmetry_multiplicity
  _atom_site_fract_x
  _atom_site_fract_y
  _atom_site_fract_z
  _atom_site_occupancy
  Ce  Ce1       1.0  0.22119  0.21241  0.33145  1.0000
  Ce  Ce2       1.0  0.88824  0.87941  0.40745  1.0000
  Ce  Ce3       1.0  0.55683  0.54756  0.48383  1.0000
  Ce  Ce4       1.0  0.23408  0.22116  0.56008  1.0000
  Ce  Ce5       1.0  0.88720  0.37841  0.40758  1.0000
  Ce  Ce6       1.0  0.55211  0.04398  0.48440  1.0000
  Ce  Ce7       1.0  0.21583  0.70692  0.56125  1.0000
  Ce  Ce8       1.0  0.22107  0.71234  0.33150  1.0000
  O   O1        1.0  0.55446  0.54568  0.31281  1.0000
  O   O2        1.0  0.88851  0.87966  0.35081  1.0000
  O   O3        1.0  0.22183  0.21305  0.38817  1.0000
  O   O4        1.0  0.55651  0.54793  0.42682  1.0000
  O   O5        1.0  0.89309  0.88377  0.46542  1.0000
  O   O6        1.0  0.22581  0.21927  0.50450  1.0000
  O   O7        1.0  0.58216  0.56933  0.54225  1.0000
  O   O8        1.0  0.88035  0.90294  0.58534  1.0000
  O   O9        1.0  0.37407  0.31220  0.62308  1.0000
  O   O10       1.0  0.55423  0.04529  0.31272  1.0000
  O   O11       1.0  0.88706  0.37821  0.35077  1.0000
  O   O12       1.0  0.55216  0.04315  0.42645  1.0000
  O   O13       1.0  0.88226  0.37415  0.46454  1.0000
  O   O14       1.0  0.52701  0.02609  0.54092  1.0000
  O   O15       1.0  0.89146  0.37073  0.57141  1.0000
  O   O16       1.0  0.04626  0.67193  0.61757  1.0000
  O   O17       1.0  0.21656  0.70570  0.50194  1.0000
  O   O18       1.0  0.22004  0.71135  0.38787  1.0000
  H   H1        1.0  0.45664  0.22523  0.63328  1.0000
  H   H2        1.0  0.62868  0.44686  0.62252  1.0000
  H   H3        1.0  0.23355  0.67388  0.63345  1.0000
  H   H4        1.0  0.93297  0.85187  0.60580  1.0000
data_image7
_chemical_formula_structural       Ce8O18H4
_chemical_formula_sum              "Ce8 O18 H4"
_cell_length_a       3.87986
_cell_length_b       7.75972
_cell_length_c       41.4073
_cell_angle_alpha    90
_cell_angle_beta     90
_cell_angle_gamma    120

_space_group_name_H-M_alt    "P 1"
_space_group_IT_number       1

loop_
  _space_group_symop_operation_xyz
  'x, y, z'

loop_
  _atom_site_type_symbol
  _atom_site_label
  _atom_site_symmetry_multiplicity
  _atom_site_fract_x
  _atom_site_fract_y
  _atom_site_fract_z
  _atom_site_occupancy
  Ce  Ce1       1.0  0.22070  0.22453  0.33175  1.0000
  Ce  Ce2       1.0  0.88678  0.89063  0.40777  1.0000
  Ce  Ce3       1.0  0.55278  0.55715  0.48476  1.0000
  Ce  Ce4       1.0  0.20576  0.21539  0.56131  1.0000
  Ce  Ce5       1.0  0.88763  0.39151  0.40779  1.0000
  Ce  Ce6       1.0  0.55513  0.05867  0.48407  1.0000
  Ce  Ce7       1.0  0.23641  0.73218  0.56052  1.0000
  Ce  Ce8       1.0  0.22071  0.72440  0.33170  1.0000
  O   O1        1.0  0.55367  0.55751  0.31297  1.0000
  O   O2        1.0  0.88685  0.89051  0.35103  1.0000
  O   O3        1.0  0.21991  0.22394  0.38823  1.0000
  O   O4        1.0  0.55309  0.55689  0.42687  1.0000
  O   O5        1.0  0.88538  0.88954  0.46509  1.0000
  O   O6        1.0  0.21933  0.22218  0.50323  1.0000
  O   O7        1.0  0.54583  0.55567  0.54152  1.0000
  O   O8        1.0  0.90582  0.89296  0.57786  1.0000
  O   O9        1.0  0.29942  0.28527  0.61774  1.0000
  O   O10       1.0  0.55403  0.05782  0.31308  1.0000
  O   O11       1.0  0.88772  0.39157  0.35107  1.0000
  O   O12       1.0  0.55467  0.05864  0.42693  1.0000
  O   O13       1.0  0.88920  0.39285  0.46549  1.0000
  O   O14       1.0  0.56178  0.06103  0.54154  1.0000
  O   O15       1.0  0.88436  0.39547  0.57894  1.0000
  O   O16       1.0  0.35030  0.66613  0.62417  1.0000
  O   O17       1.0  0.22233  0.72722  0.50421  1.0000
  O   O18       1.0  0.22102  0.72475  0.38836  1.0000
  H   H1        1.0  0.23429  0.18939  0.63510  1.0000
  H   H2        1.0  0.77509  0.37155  0.60148  1.0000
  H   H3        1.0  0.33504  0.53414  0.62619  1.0000
  H   H4        1.0  0.63458  0.76363  0.62496  1.0000
data_image8
_chemical_formula_structural       Ce8O18H4
_chemical_formula_sum              "Ce8 O18 H4"
_cell_length_a       3.87986
_cell_length_b       7.75972
_cell_length_c       41.4073
_cell_angle_alpha    90
_cell_angle_beta     90
_cell_angle_gamma    120

_space_group_name_H-M_alt    "P 1"
_space_group_IT_number       1

loop_
  _space_group_symop_operation_xyz
  'x, y, z'

loop_
  _atom_site_type_symbol
  _atom_site_label
  _atom_site_symmetry_multiplicity
  _atom_site_fract_x
  _atom_site_fract_y
  _atom_site_fract_z
  _atom_site_occupancy
  Ce  Ce1       1.0  0.22668  0.21058  0.33001  1.0000
  Ce  Ce2       1.0  0.89377  0.87774  0.40597  1.0000
  Ce  Ce3       1.0  0.56288  0.54643  0.48229  1.0000
  Ce  Ce4       1.0  0.24044  0.22063  0.55852  1.0000
  Ce  Ce5       1.0  0.89271  0.37676  0.40609  1.0000
  Ce  Ce6       1.0  0.55804  0.04297  0.48286  1.0000
  Ce  Ce7       1.0  0.22226  0.70647  0.55961  1.0000
  Ce  Ce8       1.0  0.22660  0.71055  0.33005  1.0000
  O   O1        1.0  0.56005  0.54390  0.31139  1.0000
  O   O2        1.0  0.89394  0.87793  0.34936  1.0000
  O   O3        1.0  0.22750  0.21142  0.38672  1.0000
  O   O4        1.0  0.56232  0.54651  0.42533  1.0000
  O   O5        1.0  0.89912  0.88262  0.46391  1.0000
  O   O6        1.0  0.23188  0.21845  0.50295  1.0000
  O   O7        1.0  0.58860  0.56875  0.54068  1.0000
  O   O8        1.0  0.88445  0.90285  0.58368  1.0000
  O   O9        1.0  0.38283  0.31063  0.62150  1.0000
  O   O10       1.0  0.55963  0.04354  0.31126  1.0000
  O   O11       1.0  0.89242  0.37630  0.34931  1.0000
  O   O12       1.0  0.55770  0.04155  0.42496  1.0000
  O   O13       1.0  0.88791  0.37275  0.46300  1.0000
  O   O14       1.0  0.53244  0.02553  0.53931  1.0000
  O   O15       1.0  0.89839  0.37051  0.56986  1.0000
  O   O16       1.0  0.04890  0.67256  0.61597  1.0000
  O   O17       1.0  0.22272  0.70460  0.50040  1.0000
  O   O18       1.0  0.22552  0.70957  0.38639  1.0000
  H   H1        1.0  0.47250  0.22505  0.63116  1.0000
  H   H2        1.0  0.63455  0.44657  0.62097  1.0000
  H   H3        1.0  0.23725  0.68019  0.63225  1.0000
  H   H4        1.0  0.93700  0.85000  0.60400  1.0000
data_image9
_chemical_formula_structural       Ce8O18H4
_chemical_formula_sum              "Ce8 O18 H4"
_cell_length_a       3.87986
_cell_length_b       7.75972
_cell_length_c       41.4073
_cell_angle_alpha    90
_cell_angle_beta     90
_cell_angle_gamma    120

_space_group_name_H-M_alt    "P 1"
_space_group_IT_number       1

loop_
  _space_group_symop_operation_xyz
  'x, y, z'

loop_
  _atom_site_type_symbol
  _atom_site_label
  _atom_site_symmetry_multiplicity
  _atom_site_fract_x
  _atom_site_fract_y
  _atom_site_fract_z
  _atom_site_occupancy
  Ce  Ce1       1.0  0.48267  0.08291  0.35470  1.0000
  Ce  Ce2       1.0  0.48345  0.08208  0.58386  1.0000
  Ce  Ce3       1.0  0.14902  0.24938  0.43069  1.0000
  Ce  Ce4       1.0  0.81543  0.41586  0.50720  1.0000
  Ce  Ce5       1.0  0.48276  0.58298  0.35471  1.0000
  Ce  Ce6       1.0  0.48397  0.58179  0.58299  1.0000
  Ce  Ce7       1.0  0.14932  0.74957  0.43072  1.0000
  Ce  Ce8       1.0  0.81510  0.91626  0.50731  1.0000
  O   O1        1.0  0.48274  0.08287  0.41123  1.0000
  O   O2        1.0  0.48212  0.08412  0.52691  1.0000
  O   O3        1.0  0.51891  0.17038  0.64853  1.0000
  O   O4        1.0  0.81599  0.41621  0.33599  1.0000
  O   O5        1.0  0.14928  0.24954  0.37401  1.0000
  O   O6        1.0  0.81599  0.41644  0.44982  1.0000
  O   O7        1.0  0.14730  0.24830  0.48805  1.0000
  O   O8        1.0  0.82212  0.42201  0.56423  1.0000
  O   O9        1.0  0.14677  0.24886  0.60005  1.0000
  O   O10       1.0  0.48248  0.58275  0.41120  1.0000
  O   O11       1.0  0.48157  0.58115  0.52627  1.0000
  O   O12       1.0  0.28793  0.57545  0.65012  1.0000
  O   O13       1.0  0.81610  0.91627  0.33601  1.0000
  O   O14       1.0  0.14933  0.74954  0.37400  1.0000
  O   O15       1.0  0.81571  0.91586  0.44976  1.0000
  O   O16       1.0  0.15012  0.75035  0.48824  1.0000
  O   O17       1.0  0.80559  0.91070  0.56408  1.0000
  O   O18       1.0  0.13807  0.75333  0.60348  1.0000
  H   H1        1.0  0.77533  0.29040  0.65307  1.0000
  H   H2        1.0  0.34166  0.22121  0.64194  1.0000
  H   H3        1.0  0.49156  0.65593  0.66593  1.0000
  H   H4        1.0  0.21659  0.66779  0.63836  1.0000
data_image10
_chemical_formula_structural       Ce16O36H8
_chemical_formula_sum              "Ce16 O36 H8"
_cell_length_a       3.87986
_cell_length_b       15.5194
_cell_length_c       41.4073
_cell_angle_alpha    90
_cell_angle_beta     90
_cell_angle_gamma    120

_space_group_name_H-M_alt    "P 1"
_space_group_IT_number       1

loop_
  _space_group_symop_operation_xyz
  'x, y, z'

loop_
  _atom_site_type_symbol
  _atom_site_label
  _atom_site_symmetry_multiplicity
  _atom_site_fract_x
  _atom_site_fract_y
  _atom_site_fract_z
  _atom_site_occupancy
  Ce  Ce1       1.0  0.87690  0.19256  0.40723  1.0000
  Ce  Ce2       1.0  0.54379  0.02575  0.48373  1.0000
  Ce  Ce3       1.0  0.21035  0.10925  0.33121  1.0000
  Ce  Ce4       1.0  0.87692  0.44250  0.40717  1.0000
  Ce  Ce5       1.0  0.54326  0.27607  0.48386  1.0000
  Ce  Ce6       1.0  0.20440  0.10824  0.55978  1.0000
  Ce  Ce7       1.0  0.21041  0.35925  0.33116  1.0000
  Ce  Ce8       1.0  0.54388  0.52573  0.48374  1.0000
  Ce  Ce9       1.0  0.87746  0.69255  0.40724  1.0000
  Ce  Ce10      1.0  0.20742  0.35904  0.56030  1.0000
  Ce  Ce11      1.0  0.21088  0.60927  0.33118  1.0000
  Ce  Ce12      1.0  0.87700  0.94247  0.40718  1.0000
  Ce  Ce13      1.0  0.54381  0.77607  0.48388  1.0000
  Ce  Ce14      1.0  0.20474  0.60822  0.55979  1.0000
  Ce  Ce15      1.0  0.21075  0.85922  0.33118  1.0000
  Ce  Ce16      1.0  0.20798  0.85906  0.56028  1.0000
  O   O1        1.0  0.90153  0.44706  0.57922  1.0000
  O   O2        1.0  0.37729  0.15144  0.62700  1.0000
  O   O3        1.0  0.87010  0.19099  0.57777  1.0000
  O   O4        1.0  0.54308  0.02563  0.42626  1.0000
  O   O5        1.0  0.87632  0.19220  0.46455  1.0000
  O   O6        1.0  0.87680  0.19253  0.35049  1.0000
  O   O7        1.0  0.54411  0.02582  0.31250  1.0000
  O   O8        1.0  0.54456  0.02414  0.54024  1.0000
  O   O9        1.0  0.21330  0.11018  0.50324  1.0000
  O   O10       1.0  0.54330  0.27580  0.31244  1.0000
  O   O11       1.0  0.87709  0.44256  0.35047  1.0000
  O   O12       1.0  0.21029  0.10923  0.38775  1.0000
  O   O13       1.0  0.54399  0.27611  0.42633  1.0000
  O   O14       1.0  0.87701  0.44281  0.46478  1.0000
  O   O15       1.0  0.54511  0.27824  0.54127  1.0000
  O   O16       1.0  0.35810  0.35515  0.62506  1.0000
  O   O17       1.0  0.54476  0.52410  0.54026  1.0000
  O   O18       1.0  0.54366  0.52580  0.31243  1.0000
  O   O19       1.0  0.87733  0.69246  0.35049  1.0000
  O   O20       1.0  0.87705  0.69224  0.46458  1.0000
  O   O21       1.0  0.21022  0.35916  0.38767  1.0000
  O   O22       1.0  0.54327  0.52565  0.42626  1.0000
  O   O23       1.0  0.20635  0.35820  0.50305  1.0000
  O   O24       1.0  0.87070  0.69094  0.57779  1.0000
  O   O25       1.0  0.37761  0.65097  0.62702  1.0000
  O   O26       1.0  0.90117  0.94705  0.57918  1.0000
  O   O27       1.0  0.21356  0.61014  0.50325  1.0000
  O   O28       1.0  0.54412  0.77580  0.31247  1.0000
  O   O29       1.0  0.87731  0.94251  0.35050  1.0000
  O   O30       1.0  0.21087  0.60928  0.38774  1.0000
  O   O31       1.0  0.54471  0.77615  0.42635  1.0000
  O   O32       1.0  0.87719  0.94282  0.46478  1.0000
  O   O33       1.0  0.54564  0.77820  0.54128  1.0000
  O   O34       1.0  0.35834  0.85466  0.62505  1.0000
  O   O35       1.0  0.21044  0.85910  0.38768  1.0000
  O   O36       1.0  0.20691  0.85825  0.50305  1.0000
  H   H1        1.0  0.33113  0.09727  0.64152  1.0000
  H   H2        1.0  0.63464  0.17148  0.61563  1.0000
  H   H3        1.0  0.63546  0.39638  0.61704  1.0000
  H   H4        1.0  0.33614  0.29166  0.63131  1.0000
  H   H5        1.0  0.63503  0.67103  0.61565  1.0000
  H   H6        1.0  0.33099  0.59668  0.64149  1.0000
  H   H7        1.0  0.63575  0.89591  0.61705  1.0000
  H   H8        1.0  0.33612  0.79114  0.63128  1.0000
data_image11
_chemical_formula_structural       Ce16O36H8
_chemical_formula_sum              "Ce16 O36 H8"
_cell_length_a       3.87986
_cell_length_b       15.5194
_cell_length_c       41.4073
_cell_angle_alpha    90
_cell_angle_beta     90
_cell_angle_gamma    120

_space_group_name_H-M_alt    "P 1"
_space_group_IT_number       1

loop_
  _space_group_symop_operation_xyz
  'x, y, z'

loop_
  _atom_site_type_symbol
  _atom_site_label
  _atom_site_symmetry_multiplicity
  _atom_site_fract_x
  _atom_site_fract_y
  _atom_site_fract_z
  _atom_site_occupancy
  Ce  Ce1       1.0  0.88874  0.19398  0.40722  1.0000
  Ce  Ce2       1.0  0.55595  0.02734  0.48329  1.0000
  Ce  Ce3       1.0  0.22141  0.11051  0.33109  1.0000
  Ce  Ce4       1.0  0.88708  0.44327  0.40733  1.0000
  Ce  Ce5       1.0  0.55636  0.27746  0.48423  1.0000
  Ce  Ce6       1.0  0.21696  0.10769  0.55988  1.0000
  Ce  Ce7       1.0  0.22100  0.36023  0.33115  1.0000
  Ce  Ce8       1.0  0.55036  0.52530  0.48429  1.0000
  Ce  Ce9       1.0  0.88581  0.69291  0.40718  1.0000
  Ce  Ce10      1.0  0.21017  0.35408  0.56244  1.0000
  Ce  Ce11      1.0  0.22038  0.60994  0.33120  1.0000
  Ce  Ce12      1.0  0.88799  0.94390  0.40684  1.0000
  Ce  Ce13      1.0  0.55419  0.77767  0.48303  1.0000
  Ce  Ce14      1.0  0.22326  0.61600  0.55880  1.0000
  Ce  Ce15      1.0  0.22064  0.86015  0.33112  1.0000
  Ce  Ce16      1.0  0.22121  0.86183  0.55958  1.0000
  O   O1        1.0  0.93164  0.45616  0.58302  1.0000
  O   O2        1.0  0.33416  0.12998  0.62594  1.0000
  O   O3        1.0  0.87447  0.18545  0.57615  1.0000
  O   O4        1.0  0.55376  0.02679  0.42588  1.0000
  O   O5        1.0  0.88754  0.19284  0.46439  1.0000
  O   O6        1.0  0.88765  0.19361  0.35037  1.0000
  O   O7        1.0  0.55386  0.02673  0.31240  1.0000
  O   O8        1.0  0.55027  0.02194  0.53951  1.0000
  O   O9        1.0  0.22835  0.11265  0.50337  1.0000
  O   O10       1.0  0.55424  0.27695  0.31241  1.0000
  O   O11       1.0  0.88772  0.44358  0.35052  1.0000
  O   O12       1.0  0.22207  0.11082  0.38765  1.0000
  O   O13       1.0  0.55673  0.27776  0.42650  1.0000
  O   O14       1.0  0.88835  0.44398  0.46529  1.0000
  O   O15       1.0  0.56579  0.28210  0.54286  1.0000
  O   O16       1.0  0.27360  0.35676  0.61697  1.0000
  O   O17       1.0  0.55050  0.52488  0.54089  1.0000
  O   O18       1.0  0.55398  0.52673  0.31242  1.0000
  O   O19       1.0  0.88639  0.69298  0.35050  1.0000
  O   O20       1.0  0.88371  0.69223  0.46428  1.0000
  O   O21       1.0  0.22089  0.36006  0.38765  1.0000
  O   O22       1.0  0.55165  0.52562  0.42646  1.0000
  O   O23       1.0  0.21628  0.35767  0.50305  1.0000
  O   O24       1.0  0.88606  0.69519  0.57693  1.0000
  O   O25       1.0  0.38589  0.65334  0.62641  1.0000
  O   O26       1.0  0.90870  0.94620  0.57901  1.0000
  O   O27       1.0  0.22266  0.61179  0.50345  1.0000
  O   O28       1.0  0.55393  0.77670  0.31252  1.0000
  O   O29       1.0  0.88775  0.94375  0.35039  1.0000
  O   O30       1.0  0.22024  0.60993  0.38788  1.0000
  O   O31       1.0  0.55446  0.77740  0.42615  1.0000
  O   O32       1.0  0.88987  0.94507  0.46439  1.0000
  O   O33       1.0  0.55740  0.78063  0.54039  1.0000
  O   O34       1.0  0.36880  0.85921  0.62506  1.0000
  O   O35       1.0  0.21991  0.85993  0.38749  1.0000
  O   O36       1.0  0.21561  0.85889  0.50201  1.0000
  H   H1        1.0  0.28078  0.06856  0.63668  1.0000
  H   H2        1.0  0.61924  0.16399  0.62022  1.0000
  H   H3        1.0  0.80083  0.43431  0.60444  1.0000
  H   H4        1.0  0.27371  0.30256  0.62890  1.0000
  H   H5        1.0  0.64630  0.67328  0.61585  1.0000
  H   H6        1.0  0.32411  0.59548  0.63969  1.0000
  H   H7        1.0  0.64321  0.89735  0.61607  1.0000
  H   H8        1.0  0.34111  0.79572  0.63202  1.0000
data_image12
_chemical_formula_structural       Ce16O36H8
_chemical_formula_sum              "Ce16 O36 H8"
_cell_length_a       7.75972
_cell_length_b       7.75972
_cell_length_c       41.4073
_cell_angle_alpha    90
_cell_angle_beta     90
_cell_angle_gamma    120

_space_group_name_H-M_alt    "P 1"
_space_group_IT_number       1

loop_
  _space_group_symop_operation_xyz
  'x, y, z'

loop_
  _atom_site_type_symbol
  _atom_site_label
  _atom_site_symmetry_multiplicity
  _atom_site_fract_x
  _atom_site_fract_y
  _atom_site_fract_z
  _atom_site_occupancy
  Ce  Ce1       1.0  0.10020  0.21454  0.33124  1.0000
  Ce  Ce2       1.0  0.43342  0.88122  0.40722  1.0000
  Ce  Ce3       1.0  0.26657  0.54787  0.48373  1.0000
  Ce  Ce4       1.0  0.09802  0.21345  0.55953  1.0000
  Ce  Ce5       1.0  0.60019  0.71448  0.33124  1.0000
  Ce  Ce6       1.0  0.43350  0.38112  0.40725  1.0000
  Ce  Ce7       1.0  0.26714  0.04803  0.48386  1.0000
  Ce  Ce8       1.0  0.59807  0.71350  0.55953  1.0000
  Ce  Ce9       1.0  0.60015  0.21453  0.33121  1.0000
  Ce  Ce10      1.0  0.93351  0.88114  0.40725  1.0000
  Ce  Ce11      1.0  0.76712  0.54808  0.48386  1.0000
  Ce  Ce12      1.0  0.59855  0.21349  0.56038  1.0000
  Ce  Ce13      1.0  0.93343  0.38129  0.40722  1.0000
  Ce  Ce14      1.0  0.76658  0.04797  0.48373  1.0000
  Ce  Ce15      1.0  0.09856  0.71342  0.56038  1.0000
  Ce  Ce16      1.0  0.10016  0.71455  0.33122  1.0000
  O   O1        1.0  0.26693  0.54780  0.31253  1.0000
  O   O2        1.0  0.43335  0.88119  0.35052  1.0000
  O   O3        1.0  0.10009  0.21464  0.38773  1.0000
  O   O4        1.0  0.26702  0.54769  0.42636  1.0000
  O   O5        1.0  0.43314  0.88187  0.46461  1.0000
  O   O6        1.0  0.09892  0.21480  0.50283  1.0000
  O   O7        1.0  0.26901  0.54449  0.54074  1.0000
  O   O8        1.0  0.43354  0.88164  0.57662  1.0000
  O   O9        1.0  0.19182  0.31354  0.62685  1.0000
  O   O10       1.0  0.26682  0.04785  0.31251  1.0000
  O   O11       1.0  0.43357  0.38115  0.35054  1.0000
  O   O12       1.0  0.60005  0.71460  0.38772  1.0000
  O   O13       1.0  0.26655  0.04791  0.42628  1.0000
  O   O14       1.0  0.43381  0.38057  0.46478  1.0000
  O   O15       1.0  0.59881  0.71472  0.50284  1.0000
  O   O16       1.0  0.26615  0.05228  0.54063  1.0000
  O   O17       1.0  0.44223  0.38630  0.57992  1.0000
  O   O18       1.0  0.69164  0.81368  0.62684  1.0000
  O   O19       1.0  0.76685  0.54795  0.31249  1.0000
  O   O20       1.0  0.93362  0.88106  0.35055  1.0000
  O   O21       1.0  0.60022  0.21450  0.38777  1.0000
  O   O22       1.0  0.76662  0.54811  0.42628  1.0000
  O   O23       1.0  0.93380  0.88071  0.46479  1.0000
  O   O24       1.0  0.60123  0.21446  0.50344  1.0000
  O   O25       1.0  0.76613  0.55230  0.54064  1.0000
  O   O26       1.0  0.94205  0.88638  0.57991  1.0000
  O   O27       1.0  0.66684  0.19581  0.62512  1.0000
  O   O28       1.0  0.76686  0.04784  0.31254  1.0000
  O   O29       1.0  0.93346  0.38135  0.35051  1.0000
  O   O30       1.0  0.76700  0.04779  0.42633  1.0000
  O   O31       1.0  0.93305  0.38190  0.46459  1.0000
  O   O32       1.0  0.76899  0.04468  0.54073  1.0000
  O   O33       1.0  0.93345  0.38164  0.57664  1.0000
  O   O34       1.0  0.16714  0.69538  0.62509  1.0000
  O   O35       1.0  0.10129  0.71437  0.50344  1.0000
  O   O36       1.0  0.10023  0.71433  0.38777  1.0000
  H   H1        1.0  0.17262  0.21312  0.64280  1.0000
  H   H2        1.0  0.31896  0.34887  0.61481  1.0000
  H   H3        1.0  0.67233  0.71334  0.64280  1.0000
  H   H4        1.0  0.81885  0.84902  0.61483  1.0000
  H   H5        1.0  0.66001  0.06817  0.62963  1.0000
  H   H6        1.0  0.80651  0.28576  0.61881  1.0000
  H   H7        1.0  0.16045  0.56780  0.62960  1.0000
  H   H8        1.0  0.30678  0.78539  0.61877  1.0000
data_image13
_chemical_formula_structural       Ce16O36H8
_chemical_formula_sum              "Ce16 O36 H8"
_cell_length_a       7.75972
_cell_length_b       7.75972
_cell_length_c       41.4073
_cell_angle_alpha    90
_cell_angle_beta     90
_cell_angle_gamma    120

_space_group_name_H-M_alt    "P 1"
_space_group_IT_number       1

loop_
  _space_group_symop_operation_xyz
  'x, y, z'

loop_
  _atom_site_type_symbol
  _atom_site_label
  _atom_site_symmetry_multiplicity
  _atom_site_fract_x
  _atom_site_fract_y
  _atom_site_fract_z
  _atom_site_occupancy
  Ce  Ce1       1.0  0.11103  0.22793  0.33126  1.0000
  Ce  Ce2       1.0  0.44428  0.89437  0.40730  1.0000
  Ce  Ce3       1.0  0.27802  0.56219  0.48417  1.0000
  Ce  Ce4       1.0  0.11185  0.22956  0.56058  1.0000
  Ce  Ce5       1.0  0.61085  0.72780  0.33134  1.0000
  Ce  Ce6       1.0  0.44375  0.39435  0.40740  1.0000
  Ce  Ce7       1.0  0.27764  0.05981  0.48408  1.0000
  Ce  Ce8       1.0  0.61590  0.72150  0.56008  1.0000
  Ce  Ce9       1.0  0.61094  0.22779  0.33138  1.0000
  Ce  Ce10      1.0  0.94461  0.89498  0.40729  1.0000
  Ce  Ce11      1.0  0.77878  0.56151  0.48333  1.0000
  Ce  Ce12      1.0  0.61276  0.23273  0.55922  1.0000
  Ce  Ce13      1.0  0.94476  0.39426  0.40731  1.0000
  Ce  Ce14      1.0  0.77667  0.06075  0.48403  1.0000
  Ce  Ce15      1.0  0.10465  0.72405  0.56121  1.0000
  Ce  Ce16      1.0  0.11096  0.72792  0.33130  1.0000
  O   O1        1.0  0.27760  0.56130  0.31257  1.0000
  O   O2        1.0  0.44440  0.89441  0.35065  1.0000
  O   O3        1.0  0.11125  0.22760  0.38801  1.0000
  O   O4        1.0  0.27772  0.56304  0.42626  1.0000
  O   O5        1.0  0.44496  0.89304  0.46531  1.0000
  O   O6        1.0  0.11227  0.22694  0.50483  1.0000
  O   O7        1.0  0.28309  0.57579  0.54138  1.0000
  O   O8        1.0  0.45791  0.89508  0.58584  1.0000
  O   O9        1.0  0.15069  0.16060  0.62245  1.0000
  O   O10       1.0  0.27782  0.06113  0.31260  1.0000
  O   O11       1.0  0.44369  0.39436  0.35062  1.0000
  O   O12       1.0  0.61141  0.72754  0.38786  1.0000
  O   O13       1.0  0.27872  0.06009  0.42651  1.0000
  O   O14       1.0  0.44007  0.39429  0.46446  1.0000
  O   O15       1.0  0.61443  0.72452  0.50326  1.0000
  O   O16       1.0  0.29237  0.05250  0.54145  1.0000
  O   O17       1.0  0.44419  0.39368  0.57618  1.0000
  O   O18       1.0  0.69952  0.69264  0.62156  1.0000
  O   O19       1.0  0.77767  0.56103  0.31271  1.0000
  O   O20       1.0  0.94439  0.89516  0.35059  1.0000
  O   O21       1.0  0.61114  0.22835  0.38778  1.0000
  O   O22       1.0  0.77824  0.56079  0.42655  1.0000
  O   O23       1.0  0.94535  0.89797  0.46453  1.0000
  O   O24       1.0  0.61078  0.23299  0.50185  1.0000
  O   O25       1.0  0.77988  0.55323  0.54110  1.0000
  O   O26       1.0  0.94156  0.90176  0.57018  1.0000
  O   O27       1.0  0.69148  0.29212  0.62706  1.0000
  O   O28       1.0  0.77763  0.06112  0.31259  1.0000
  O   O29       1.0  0.94471  0.39409  0.35064  1.0000
  O   O30       1.0  0.77618  0.06080  0.42635  1.0000
  O   O31       1.0  0.94710  0.39238  0.46480  1.0000
  O   O32       1.0  0.75727  0.06071  0.54032  1.0000
  O   O33       1.0  0.95133  0.39226  0.57950  1.0000
  O   O34       1.0  0.09258  0.78388  0.61857  1.0000
  O   O35       1.0  0.10704  0.72659  0.50252  1.0000
  O   O36       1.0  0.11033  0.72796  0.38771  1.0000
  H   H1        1.0  0.13138  0.02253  0.62414  1.0000
  H   H2        1.0  0.29402  0.25030  0.62437  1.0000
  H   H3        1.0  0.63819  0.55240  0.62761  1.0000
  H   H4        1.0  0.84582  0.73879  0.62206  1.0000
  H   H5        1.0  0.67838  0.18615  0.64128  1.0000
  H   H6        1.0  0.82297  0.34284  0.61578  1.0000
  H   H7        1.0  0.10186  0.70312  0.63577  1.0000
  H   H8        1.0  0.40995  0.88380  0.60801  1.0000
data_image14
_chemical_formula_structural       Ce16O36H8
_chemical_formula_sum              "Ce16 O36 H8"
_cell_length_a       7.75972
_cell_length_b       7.75972
_cell_length_c       41.4073
_cell_angle_alpha    90
_cell_angle_beta     90
_cell_angle_gamma    120

_space_group_name_H-M_alt    "P 1"
_space_group_IT_number       1

loop_
  _space_group_symop_operation_xyz
  'x, y, z'

loop_
  _atom_site_type_symbol
  _atom_site_label
  _atom_site_symmetry_multiplicity
  _atom_site_fract_x
  _atom_site_fract_y
  _atom_site_fract_z
  _atom_site_occupancy
  Ce  Ce1       1.0  0.11039  0.22596  0.33155  1.0000
  Ce  Ce2       1.0  0.44307  0.89244  0.40764  1.0000
  Ce  Ce3       1.0  0.27689  0.55791  0.48435  1.0000
  Ce  Ce4       1.0  0.10394  0.22216  0.56148  1.0000
  Ce  Ce5       1.0  0.61030  0.72586  0.33159  1.0000
  Ce  Ce6       1.0  0.44367  0.39245  0.40756  1.0000
  Ce  Ce7       1.0  0.27736  0.06028  0.48445  1.0000
  Ce  Ce8       1.0  0.61184  0.73087  0.55950  1.0000
  Ce  Ce9       1.0  0.61031  0.22584  0.33158  1.0000
  Ce  Ce10      1.0  0.94410  0.89236  0.40755  1.0000
  Ce  Ce11      1.0  0.77597  0.55893  0.48430  1.0000
  Ce  Ce12      1.0  0.61519  0.21969  0.56036  1.0000
  Ce  Ce13      1.0  0.94403  0.39310  0.40755  1.0000
  Ce  Ce14      1.0  0.77814  0.05965  0.48360  1.0000
  Ce  Ce15      1.0  0.11118  0.72782  0.56085  1.0000
  Ce  Ce16      1.0  0.11036  0.72599  0.33148  1.0000
  O   O1        1.0  0.27710  0.55915  0.31283  1.0000
  O   O2        1.0  0.44309  0.89249  0.35084  1.0000
  O   O3        1.0  0.10982  0.22597  0.38797  1.0000
  O   O4        1.0  0.27797  0.55805  0.42676  1.0000
  O   O5        1.0  0.43943  0.89238  0.46473  1.0000
  O   O6        1.0  0.10642  0.22464  0.50281  1.0000
  O   O7        1.0  0.29164  0.55075  0.54170  1.0000
  O   O8        1.0  0.44308  0.89158  0.57646  1.0000
  O   O9        1.0  0.09332  0.28356  0.61888  1.0000
  O   O10       1.0  0.27713  0.05933  0.31279  1.0000
  O   O11       1.0  0.44383  0.39243  0.35090  1.0000
  O   O12       1.0  0.61036  0.72646  0.38801  1.0000
  O   O13       1.0  0.27714  0.06111  0.42654  1.0000
  O   O14       1.0  0.44435  0.39124  0.46558  1.0000
  O   O15       1.0  0.60995  0.73112  0.50213  1.0000
  O   O16       1.0  0.28253  0.07393  0.54166  1.0000
  O   O17       1.0  0.45746  0.39345  0.58613  1.0000
  O   O18       1.0  0.69142  0.79042  0.62725  1.0000
  O   O19       1.0  0.77690  0.55922  0.31281  1.0000
  O   O20       1.0  0.94411  0.89224  0.35086  1.0000
  O   O21       1.0  0.61081  0.22553  0.38810  1.0000
  O   O22       1.0  0.77545  0.55883  0.42659  1.0000
  O   O23       1.0  0.94631  0.89048  0.46506  1.0000
  O   O24       1.0  0.61384  0.22274  0.50355  1.0000
  O   O25       1.0  0.75661  0.55904  0.54061  1.0000
  O   O26       1.0  0.95082  0.89091  0.57975  1.0000
  O   O27       1.0  0.69852  0.18899  0.62172  1.0000
  O   O28       1.0  0.77718  0.05913  0.31293  1.0000
  O   O29       1.0  0.94382  0.39319  0.35083  1.0000
  O   O30       1.0  0.77764  0.05898  0.42681  1.0000
  O   O31       1.0  0.94473  0.39618  0.46482  1.0000
  O   O32       1.0  0.77900  0.05129  0.54138  1.0000
  O   O33       1.0  0.94092  0.39991  0.57043  1.0000
  O   O34       1.0  0.14667  0.65825  0.62282  1.0000
  O   O35       1.0  0.11147  0.72518  0.50508  1.0000
  O   O36       1.0  0.11052  0.72573  0.38826  1.0000
  H   H1        1.0  0.10224  0.20328  0.63620  1.0000
  H   H2        1.0  0.40778  0.38220  0.60820  1.0000
  H   H3        1.0  0.67782  0.68400  0.64140  1.0000
  H   H4        1.0  0.82288  0.84090  0.61594  1.0000
  H   H5        1.0  0.63861  0.04839  0.62747  1.0000
  H   H6        1.0  0.84506  0.23682  0.62227  1.0000
  H   H7        1.0  0.12923  0.52079  0.62439  1.0000
  H   H8        1.0  0.28912  0.74933  0.62553  1.0000
data_image15
_chemical_formula_structural       Ce16O36H8
_chemical_formula_sum              "Ce16 O36 H8"
_cell_length_a       7.75972
_cell_length_b       7.75972
_cell_length_c       41.4073
_cell_angle_alpha    90
_cell_angle_beta     90
_cell_angle_gamma    120

_space_group_name_H-M_alt    "P 1"
_space_group_IT_number       1

loop_
  _space_group_symop_operation_xyz
  'x, y, z'

loop_
  _atom_site_type_symbol
  _atom_site_label
  _atom_site_symmetry_multiplicity
  _atom_site_fract_x
  _atom_site_fract_y
  _atom_site_fract_z
  _atom_site_occupancy
  Ce  Ce1       1.0  0.10948  0.22310  0.33167  1.0000
  Ce  Ce2       1.0  0.44302  0.88998  0.40769  1.0000
  Ce  Ce3       1.0  0.27695  0.55765  0.48404  1.0000
  Ce  Ce4       1.0  0.11521  0.23186  0.56060  1.0000
  Ce  Ce5       1.0  0.60941  0.72302  0.33171  1.0000
  Ce  Ce6       1.0  0.44260  0.38938  0.40776  1.0000
  Ce  Ce7       1.0  0.27488  0.05447  0.48451  1.0000
  Ce  Ce8       1.0  0.60293  0.71362  0.56155  1.0000
  Ce  Ce9       1.0  0.60945  0.22302  0.33169  1.0000
  Ce  Ce10      1.0  0.94301  0.89010  0.40763  1.0000
  Ce  Ce11      1.0  0.77752  0.55822  0.48396  1.0000
  Ce  Ce12      1.0  0.61398  0.23019  0.55921  1.0000
  Ce  Ce13      1.0  0.94272  0.38928  0.40772  1.0000
  Ce  Ce14      1.0  0.77610  0.05568  0.48454  1.0000
  Ce  Ce15      1.0  0.10650  0.71678  0.56179  1.0000
  Ce  Ce16      1.0  0.10948  0.72307  0.33171  1.0000
  O   O1        1.0  0.27615  0.55653  0.31304  1.0000
  O   O2        1.0  0.44319  0.89012  0.35105  1.0000
  O   O3        1.0  0.10992  0.22342  0.38833  1.0000
  O   O4        1.0  0.27628  0.55789  0.42684  1.0000
  O   O5        1.0  0.44499  0.89170  0.46546  1.0000
  O   O6        1.0  0.11404  0.22716  0.50456  1.0000
  O   O7        1.0  0.27727  0.56680  0.54207  1.0000
  O   O8        1.0  0.46064  0.90579  0.58218  1.0000
  O   O9        1.0  0.17767  0.16954  0.62402  1.0000
  O   O10       1.0  0.27611  0.05618  0.31300  1.0000
  O   O11       1.0  0.44249  0.38931  0.35098  1.0000
  O   O12       1.0  0.60930  0.72233  0.38818  1.0000
  O   O13       1.0  0.27537  0.05451  0.42679  1.0000
  O   O14       1.0  0.44135  0.38835  0.46471  1.0000
  O   O15       1.0  0.60836  0.71897  0.50324  1.0000
  O   O16       1.0  0.27117  0.04192  0.54134  1.0000
  O   O17       1.0  0.44222  0.38260  0.57380  1.0000
  O   O18       1.0  0.63060  0.71339  0.61614  1.0000
  O   O19       1.0  0.77625  0.55649  0.31307  1.0000
  O   O20       1.0  0.94289  0.89027  0.35102  1.0000
  O   O21       1.0  0.60960  0.22366  0.38833  1.0000
  O   O22       1.0  0.77761  0.55783  0.42694  1.0000
  O   O23       1.0  0.94356  0.89282  0.46542  1.0000
  O   O24       1.0  0.60905  0.22749  0.50369  1.0000
  O   O25       1.0  0.78627  0.56211  0.54187  1.0000
  O   O26       1.0  0.94280  0.89889  0.57939  1.0000
  O   O27       1.0  0.67158  0.27239  0.62584  1.0000
  O   O28       1.0  0.77605  0.05633  0.31297  1.0000
  O   O29       1.0  0.94261  0.38909  0.35101  1.0000
  O   O30       1.0  0.77555  0.05524  0.42664  1.0000
  O   O31       1.0  0.94195  0.38620  0.46505  1.0000
  O   O32       1.0  0.77273  0.05702  0.54070  1.0000
  O   O33       1.0  0.94986  0.38827  0.57958  1.0000
  O   O34       1.0  0.15439  0.79073  0.61827  1.0000
  O   O35       1.0  0.10771  0.71939  0.50243  1.0000
  O   O36       1.0  0.10915  0.72266  0.38807  1.0000
  H   H1        1.0  0.17258  0.03865  0.62580  1.0000
  H   H2        1.0  0.31708  0.26956  0.62736  1.0000
  H   H3        1.0  0.62337  0.60106  0.62788  1.0000
  H   H4        1.0  0.89324  0.86397  0.60192  1.0000
  H   H5        1.0  0.64073  0.15169  0.63774  1.0000
  H   H6        1.0  0.81061  0.32725  0.61809  1.0000
  H   H7        1.0  0.11195  0.69275  0.63553  1.0000
  H   H8        1.0  0.39357  0.87324  0.60378  1.0000
data_image16
_chemical_formula_structural       Ce16O36H8
_chemical_formula_sum              "Ce16 O36 H8"
_cell_length_a       7.75972
_cell_length_b       7.75972
_cell_length_c       41.4073
_cell_angle_alpha    90
_cell_angle_beta     90
_cell_angle_gamma    120

_space_group_name_H-M_alt    "P 1"
_space_group_IT_number       1

loop_
  _space_group_symop_operation_xyz
  'x, y, z'

loop_
  _atom_site_type_symbol
  _atom_site_label
  _atom_site_symmetry_multiplicity
  _atom_site_fract_x
  _atom_site_fract_y
  _atom_site_fract_z
  _atom_site_occupancy
  Ce  Ce1       1.0  0.11128  0.22784  0.33210  1.0000
  Ce  Ce2       1.0  0.44487  0.89422  0.40804  1.0000
  Ce  Ce3       1.0  0.27696  0.56210  0.48498  1.0000
  Ce  Ce4       1.0  0.11706  0.22198  0.56051  1.0000
  Ce  Ce5       1.0  0.61123  0.72780  0.33209  1.0000
  Ce  Ce6       1.0  0.44438  0.39476  0.40821  1.0000
  Ce  Ce7       1.0  0.27925  0.05986  0.48442  1.0000
  Ce  Ce8       1.0  0.61709  0.72203  0.56051  1.0000
  Ce  Ce9       1.0  0.61124  0.22781  0.33214  1.0000
  Ce  Ce10      1.0  0.94434  0.89471  0.40821  1.0000
  Ce  Ce11      1.0  0.77919  0.55977  0.48442  1.0000
  Ce  Ce12      1.0  0.60906  0.23000  0.56219  1.0000
  Ce  Ce13      1.0  0.94490  0.39420  0.40805  1.0000
  Ce  Ce14      1.0  0.77702  0.06203  0.48499  1.0000
  Ce  Ce15      1.0  0.10902  0.73004  0.56218  1.0000
  Ce  Ce16      1.0  0.11121  0.72789  0.33212  1.0000
  O   O1        1.0  0.27780  0.56127  0.31336  1.0000
  O   O2        1.0  0.44502  0.89409  0.35145  1.0000
  O   O3        1.0  0.11183  0.22733  0.38882  1.0000
  O   O4        1.0  0.27658  0.56254  0.42702  1.0000
  O   O5        1.0  0.44728  0.89171  0.46602  1.0000
  O   O6        1.0  0.11500  0.22408  0.50516  1.0000
  O   O7        1.0  0.26682  0.57212  0.54161  1.0000
  O   O8        1.0  0.45535  0.88391  0.58610  1.0000
  O   O9        1.0  0.17946  0.15963  0.61957  1.0000
  O   O10       1.0  0.27809  0.06107  0.31348  1.0000
  O   O11       1.0  0.44416  0.39490  0.35140  1.0000
  O   O12       1.0  0.61176  0.72736  0.38883  1.0000
  O   O13       1.0  0.27932  0.05988  0.42744  1.0000
  O   O14       1.0  0.44196  0.39709  0.46512  1.0000
  O   O15       1.0  0.61490  0.72407  0.50514  1.0000
  O   O16       1.0  0.29128  0.04770  0.54277  1.0000
  O   O17       1.0  0.44017  0.39882  0.57082  1.0000
  O   O18       1.0  0.67940  0.65962  0.61957  1.0000
  O   O19       1.0  0.77803  0.56102  0.31348  1.0000
  O   O20       1.0  0.94416  0.89494  0.35140  1.0000
  O   O21       1.0  0.61083  0.22828  0.38848  1.0000
  O   O22       1.0  0.77931  0.55973  0.42744  1.0000
  O   O23       1.0  0.94200  0.89706  0.46511  1.0000
  O   O24       1.0  0.60801  0.23106  0.50237  1.0000
  O   O25       1.0  0.79130  0.54778  0.54278  1.0000
  O   O26       1.0  0.94023  0.89882  0.57088  1.0000
  O   O27       1.0  0.57593  0.26332  0.61879  1.0000
  O   O28       1.0  0.77794  0.06122  0.31336  1.0000
  O   O29       1.0  0.94503  0.39404  0.35145  1.0000
  O   O30       1.0  0.77666  0.06247  0.42705  1.0000
  O   O31       1.0  0.94737  0.39166  0.46603  1.0000
  O   O32       1.0  0.76700  0.07203  0.54162  1.0000
  O   O33       1.0  0.95519  0.38380  0.58610  1.0000
  O   O34       1.0  0.07587  0.76308  0.61879  1.0000
  O   O35       1.0  0.10786  0.73112  0.50235  1.0000
  O   O36       1.0  0.11077  0.72840  0.38846  1.0000
  H   H1        1.0  0.12487  0.01339  0.62239  1.0000
  H   H2        1.0  0.32571  0.21418  0.62238  1.0000
  H   H3        1.0  0.62488  0.51337  0.62238  1.0000
  H   H4        1.0  0.82566  0.71418  0.62241  1.0000
  H   H5        1.0  0.62106  0.21819  0.63721  1.0000
  H   H6        1.0  0.94072  0.39858  0.60917  1.0000
  H   H7        1.0  0.12146  0.71801  0.63715  1.0000
  H   H8        1.0  0.44096  0.89821  0.60919  1.0000
data_image17
_chemical_formula_structural       Ce16O36H8
_chemical_formula_sum              "Ce16 O36 H8"
_cell_length_a       7.75972
_cell_length_b       7.75972
_cell_length_c       41.4073
_cell_angle_alpha    90
_cell_angle_beta     90
_cell_angle_gamma    120

_space_group_name_H-M_alt    "P 1"
_space_group_IT_number       1

loop_
  _space_group_symop_operation_xyz
  'x, y, z'

loop_
  _atom_site_type_symbol
  _atom_site_label
  _atom_site_symmetry_multiplicity
  _atom_site_fract_x
  _atom_site_fract_y
  _atom_site_fract_z
  _atom_site_occupancy
  Ce  Ce1       1.0  0.11738  0.23149  0.33507  1.0000
  Ce  Ce2       1.0  0.45119  0.89833  0.41115  1.0000
  Ce  Ce3       1.0  0.28178  0.56391  0.48743  1.0000
  Ce  Ce4       1.0  0.12252  0.23302  0.56463  1.0000
  Ce  Ce5       1.0  0.61729  0.73132  0.33504  1.0000
  Ce  Ce6       1.0  0.45121  0.39837  0.41120  1.0000
  Ce  Ce7       1.0  0.28164  0.06310  0.48743  1.0000
  Ce  Ce8       1.0  0.60399  0.72326  0.56367  1.0000
  Ce  Ce9       1.0  0.61730  0.23142  0.33503  1.0000
  Ce  Ce10      1.0  0.95018  0.89782  0.41103  1.0000
  Ce  Ce11      1.0  0.78603  0.56567  0.48799  1.0000
  Ce  Ce12      1.0  0.60992  0.22796  0.56350  1.0000
  Ce  Ce13      1.0  0.95020  0.39784  0.41101  1.0000
  Ce  Ce14      1.0  0.78566  0.06574  0.48802  1.0000
  Ce  Ce15      1.0  0.12232  0.73481  0.56556  1.0000
  Ce  Ce16      1.0  0.11734  0.73142  0.33507  1.0000
  O   O1        1.0  0.28374  0.56455  0.31638  1.0000
  O   O2        1.0  0.45154  0.89843  0.35431  1.0000
  O   O3        1.0  0.11825  0.23180  0.39145  1.0000
  O   O4        1.0  0.28131  0.56350  0.43042  1.0000
  O   O5        1.0  0.45585  0.90039  0.46819  1.0000
  O   O6        1.0  0.12382  0.23456  0.50524  1.0000
  O   O7        1.0  0.26022  0.55222  0.54589  1.0000
  O   O8        1.0  0.46017  0.90418  0.57383  1.0000
  O   O9        1.0  0.13659  0.24283  0.62048  1.0000
  O   O10       1.0  0.28384  0.06463  0.31642  1.0000
  O   O11       1.0  0.45157  0.39862  0.35435  1.0000
  O   O12       1.0  0.61637  0.73097  0.39179  1.0000
  O   O13       1.0  0.28149  0.06324  0.43044  1.0000
  O   O14       1.0  0.45593  0.40106  0.46809  1.0000
  O   O15       1.0  0.61075  0.72776  0.50831  1.0000
  O   O16       1.0  0.25835  0.05184  0.54574  1.0000
  O   O17       1.0  0.45970  0.39854  0.57546  1.0000
  O   O18       1.0  0.46775  0.65961  0.62243  1.0000
  O   O19       1.0  0.78418  0.56485  0.31626  1.0000
  O   O20       1.0  0.94984  0.89762  0.35438  1.0000
  O   O21       1.0  0.61624  0.23078  0.39176  1.0000
  O   O22       1.0  0.78669  0.56598  0.42999  1.0000
  O   O23       1.0  0.94530  0.89528  0.46902  1.0000
  O   O24       1.0  0.60991  0.22833  0.50809  1.0000
  O   O25       1.0  0.80447  0.57297  0.54467  1.0000
  O   O26       1.0  0.92401  0.87843  0.58873  1.0000
  O   O27       1.0  0.50732  0.15930  0.62700  1.0000
  O   O28       1.0  0.78430  0.06493  0.31630  1.0000
  O   O29       1.0  0.94992  0.39777  0.35440  1.0000
  O   O30       1.0  0.78651  0.06604  0.43003  1.0000
  O   O31       1.0  0.94550  0.39559  0.46901  1.0000
  O   O32       1.0  0.80466  0.07839  0.54460  1.0000
  O   O33       1.0  0.93218  0.39621  0.58997  1.0000
  O   O34       1.0  0.20302  0.79157  0.62204  1.0000
  O   O35       1.0  0.12372  0.73439  0.50552  1.0000
  O   O36       1.0  0.11840  0.73201  0.39143  1.0000
  H   H1        1.0  0.22973  0.21227  0.63145  1.0000
  H   H2        1.0  0.37877  0.51450  0.62469  1.0000
  H   H3        1.0  0.37548  0.71419  0.62533  1.0000
  H   H4        1.0  0.95347  0.93690  0.61047  1.0000
  H   H5        1.0  0.60353  0.16632  0.64281  1.0000
  H   H6        1.0  0.97119  0.37927  0.61175  1.0000
  H   H7        1.0  0.39242  0.01590  0.62743  1.0000
  H   H8        1.0  0.09958  0.74444  0.63851  1.0000
data_image18
_chemical_formula_structural       Ce16O36H8
_chemical_formula_sum              "Ce16 O36 H8"
_cell_length_a       7.75972
_cell_length_b       7.75972
_cell_length_c       41.4073
_cell_angle_alpha    90
_cell_angle_beta     90
_cell_angle_gamma    120

_space_group_name_H-M_alt    "P 1"
_space_group_IT_number       1

loop_
  _space_group_symop_operation_xyz
  'x, y, z'

loop_
  _atom_site_type_symbol
  _atom_site_label
  _atom_site_symmetry_multiplicity
  _atom_site_fract_x
  _atom_site_fract_y
  _atom_site_fract_z
  _atom_site_occupancy
  Ce  Ce1       1.0  0.10814  0.21797  0.33141  1.0000
  Ce  Ce2       1.0  0.44169  0.88516  0.40739  1.0000
  Ce  Ce3       1.0  0.27669  0.55360  0.48376  1.0000
  Ce  Ce4       1.0  0.11296  0.22864  0.55986  1.0000
  Ce  Ce5       1.0  0.60822  0.71799  0.33142  1.0000
  Ce  Ce6       1.0  0.44120  0.38447  0.40745  1.0000
  Ce  Ce7       1.0  0.27315  0.04994  0.48408  1.0000
  Ce  Ce8       1.0  0.60468  0.71270  0.56297  1.0000
  Ce  Ce9       1.0  0.60830  0.21795  0.33143  1.0000
  Ce  Ce10      1.0  0.94151  0.88517  0.40730  1.0000
  Ce  Ce11      1.0  0.77503  0.55446  0.48372  1.0000
  Ce  Ce12      1.0  0.61298  0.22686  0.55900  1.0000
  Ce  Ce13      1.0  0.94114  0.38424  0.40759  1.0000
  Ce  Ce14      1.0  0.77388  0.04964  0.48432  1.0000
  Ce  Ce15      1.0  0.10500  0.71298  0.56046  1.0000
  Ce  Ce16      1.0  0.10820  0.71791  0.33147  1.0000
  O   O1        1.0  0.27504  0.55148  0.31279  1.0000
  O   O2        1.0  0.44198  0.88545  0.35077  1.0000
  O   O3        1.0  0.10846  0.21884  0.38809  1.0000
  O   O4        1.0  0.27601  0.55365  0.42669  1.0000
  O   O5        1.0  0.44334  0.88931  0.46521  1.0000
  O   O6        1.0  0.11112  0.22541  0.50420  1.0000
  O   O7        1.0  0.28364  0.56785  0.54241  1.0000
  O   O8        1.0  0.45490  0.90502  0.58274  1.0000
  O   O9        1.0  0.17804  0.33208  0.62357  1.0000
  O   O10       1.0  0.27486  0.05104  0.31270  1.0000
  O   O11       1.0  0.44118  0.38386  0.35070  1.0000
  O   O12       1.0  0.60771  0.71719  0.38776  1.0000
  O   O13       1.0  0.27338  0.04942  0.42636  1.0000
  O   O14       1.0  0.43938  0.38117  0.46448  1.0000
  O   O15       1.0  0.60521  0.71379  0.50215  1.0000
  O   O16       1.0  0.26184  0.03340  0.54031  1.0000
  O   O17       1.0  0.44004  0.37009  0.57233  1.0000
  O   O18       1.0  0.54671  0.66245  0.61772  1.0000
  O   O19       1.0  0.77503  0.55140  0.31279  1.0000
  O   O20       1.0  0.94188  0.88541  0.35074  1.0000
  O   O21       1.0  0.60853  0.21886  0.38816  1.0000
  O   O22       1.0  0.77565  0.55404  0.42671  1.0000
  O   O23       1.0  0.94357  0.88903  0.46531  1.0000
  O   O24       1.0  0.61046  0.22448  0.50406  1.0000
  O   O25       1.0  0.78534  0.57239  0.54201  1.0000
  O   O26       1.0  0.94237  0.90771  0.58497  1.0000
  O   O27       1.0  0.68522  0.27201  0.62518  1.0000
  O   O28       1.0  0.77477  0.05107  0.31266  1.0000
  O   O29       1.0  0.94112  0.38384  0.35073  1.0000
  O   O30       1.0  0.77364  0.04873  0.42638  1.0000
  O   O31       1.0  0.93875  0.38041  0.46442  1.0000
  O   O32       1.0  0.76944  0.04009  0.54092  1.0000
  O   O33       1.0  0.93994  0.38237  0.57471  1.0000
  O   O34       1.0  0.12085  0.75091  0.61673  1.0000
  O   O35       1.0  0.10533  0.71103  0.50187  1.0000
  O   O36       1.0  0.10769  0.71728  0.38783  1.0000
  H   H1        1.0  0.19752  0.23805  0.63648  1.0000
  H   H2        1.0  0.31457  0.45715  0.62277  1.0000
  H   H3        1.0  0.61915  0.60543  0.62843  1.0000
  H   H4        1.0  0.97714  0.86944  0.60581  1.0000
  H   H5        1.0  0.64187  0.14987  0.63747  1.0000
  H   H6        1.0  0.82443  0.31792  0.61904  1.0000
  H   H7        1.0  0.09305  0.64552  0.63217  1.0000
  H   H8        1.0  0.39125  0.86881  0.60432  1.0000
data_image19
_chemical_formula_structural       Ce16O36H8
_chemical_formula_sum              "Ce16 O36 H8"
_cell_length_a       7.75092
_cell_length_b       7.75092
_cell_length_c       41.4073
_cell_angle_alpha    90
_cell_angle_beta     90
_cell_angle_gamma    120

_space_group_name_H-M_alt    "P 1"
_space_group_IT_number       1

loop_
  _space_group_symop_operation_xyz
  'x, y, z'

loop_
  _atom_site_type_symbol
  _atom_site_label
  _atom_site_symmetry_multiplicity
  _atom_site_fract_x
  _atom_site_fract_y
  _atom_site_fract_z
  _atom_site_occupancy
  Ce  Ce1       1.0  0.11041  0.23365  0.33437  1.0000
  Ce  Ce2       1.0  0.44376  0.90013  0.41049  1.0000
  Ce  Ce3       1.0  0.27713  0.56591  0.48707  1.0000
  Ce  Ce4       1.0  0.10904  0.23198  0.56443  1.0000
  Ce  Ce5       1.0  0.61038  0.73359  0.33430  1.0000
  Ce  Ce6       1.0  0.44421  0.40058  0.41042  1.0000
  Ce  Ce7       1.0  0.27587  0.06739  0.48682  1.0000
  Ce  Ce8       1.0  0.60629  0.73761  0.56475  1.0000
  Ce  Ce9       1.0  0.61046  0.23362  0.33435  1.0000
  Ce  Ce10      1.0  0.94346  0.89978  0.41034  1.0000
  Ce  Ce11      1.0  0.77711  0.56747  0.48743  1.0000
  Ce  Ce12      1.0  0.60657  0.22844  0.56245  1.0000
  Ce  Ce13      1.0  0.94361  0.40053  0.41050  1.0000
  Ce  Ce14      1.0  0.77839  0.06657  0.48692  1.0000
  Ce  Ce15      1.0  0.11579  0.73415  0.56371  1.0000
  Ce  Ce16      1.0  0.11041  0.73354  0.33432  1.0000
  O   O1        1.0  0.27692  0.56670  0.31563  1.0000
  O   O2        1.0  0.44382  0.90030  0.35362  1.0000
  O   O3        1.0  0.11057  0.23367  0.39078  1.0000
  O   O4        1.0  0.27625  0.56513  0.42975  1.0000
  O   O5        1.0  0.44412  0.90021  0.46747  1.0000
  O   O6        1.0  0.11129  0.23488  0.50403  1.0000
  O   O7        1.0  0.26649  0.54537  0.54576  1.0000
  O   O8        1.0  0.44574  0.90619  0.56873  1.0000
  O   O9        1.0  0.15317  0.21852  0.62035  1.0000
  O   O10       1.0  0.27694  0.06702  0.31566  1.0000
  O   O11       1.0  0.44446  0.40064  0.35369  1.0000
  O   O12       1.0  0.60983  0.73394  0.39098  1.0000
  O   O13       1.0  0.27585  0.06754  0.42970  1.0000
  O   O14       1.0  0.44831  0.40240  0.46801  1.0000
  O   O15       1.0  0.60715  0.73460  0.50705  1.0000
  O   O16       1.0  0.26744  0.07994  0.54470  1.0000
  O   O17       1.0  0.46909  0.41000  0.58663  1.0000
  O   O18       1.0  0.56839  0.79115  0.61875  1.0000
  O   O19       1.0  0.77713  0.56694  0.31554  1.0000
  O   O20       1.0  0.94335  0.89958  0.35369  1.0000
  O   O21       1.0  0.60987  0.23271  0.39106  1.0000
  O   O22       1.0  0.77729  0.56737  0.42925  1.0000
  O   O23       1.0  0.94132  0.89604  0.46812  1.0000
  O   O24       1.0  0.60776  0.22879  0.50670  1.0000
  O   O25       1.0  0.77682  0.56424  0.54425  1.0000
  O   O26       1.0  0.93686  0.88530  0.58604  1.0000
  O   O27       1.0  0.56077  0.14147  0.62467  1.0000
  O   O28       1.0  0.77733  0.06708  0.31563  1.0000
  O   O29       1.0  0.94336  0.40055  0.35373  1.0000
  O   O30       1.0  0.77899  0.06759  0.42963  1.0000
  O   O31       1.0  0.94129  0.40224  0.46808  1.0000
  O   O32       1.0  0.79886  0.07683  0.54432  1.0000
  O   O33       1.0  0.92493  0.38096  0.58653  1.0000
  O   O34       1.0  0.15533  0.71863  0.61665  1.0000
  O   O35       1.0  0.11540  0.73589  0.50664  1.0000
  O   O36       1.0  0.11142  0.73405  0.39100  1.0000
  H   H1        1.0  0.09717  0.25807  0.63798  1.0000
  H   H2        1.0  0.39282  0.36991  0.60751  1.0000
  H   H3        1.0  0.62033  0.74268  0.63581  1.0000
  H   H4        1.0  0.97759  0.93699  0.60822  1.0000
  H   H5        1.0  0.56942  0.01606  0.62563  1.0000
  H   H6        1.0  0.96708  0.44785  0.60783  1.0000
  H   H7        1.0  0.42579  0.10099  0.63215  1.0000
  H   H8        1.0  0.28323  0.72882  0.62284  1.0000
data_image20
_chemical_formula_structural       Ce16O36H8
_chemical_formula_sum              "Ce16 O36 H8"
_cell_length_a       7.75972
_cell_length_b       7.75972
_cell_length_c       41.4073
_cell_angle_alpha    90
_cell_angle_beta     90
_cell_angle_gamma    120

_space_group_name_H-M_alt    "P 1"
_space_group_IT_number       1

loop_
  _space_group_symop_operation_xyz
  'x, y, z'

loop_
  _atom_site_type_symbol
  _atom_site_label
  _atom_site_symmetry_multiplicity
  _atom_site_fract_x
  _atom_site_fract_y
  _atom_site_fract_z
  _atom_site_occupancy
  Ce  Ce1       1.0  0.11127  0.23173  0.33257  1.0000
  Ce  Ce2       1.0  0.44403  0.89726  0.40861  1.0000
  Ce  Ce3       1.0  0.27765  0.56537  0.48569  1.0000
  Ce  Ce4       1.0  0.10432  0.22320  0.56162  1.0000
  Ce  Ce5       1.0  0.61071  0.73120  0.33258  1.0000
  Ce  Ce6       1.0  0.44402  0.39847  0.40871  1.0000
  Ce  Ce7       1.0  0.27963  0.06578  0.48528  1.0000
  Ce  Ce8       1.0  0.62124  0.73279  0.56108  1.0000
  Ce  Ce9       1.0  0.61066  0.23176  0.33260  1.0000
  Ce  Ce10      1.0  0.94372  0.89776  0.40879  1.0000
  Ce  Ce11      1.0  0.77686  0.56264  0.48516  1.0000
  Ce  Ce12      1.0  0.61126  0.23183  0.56399  1.0000
  Ce  Ce13      1.0  0.94413  0.39849  0.40861  1.0000
  Ce  Ce14      1.0  0.77611  0.06635  0.48513  1.0000
  Ce  Ce15      1.0  0.11212  0.73692  0.56210  1.0000
  Ce  Ce16      1.0  0.11125  0.73124  0.33256  1.0000
  O   O1        1.0  0.27773  0.56470  0.31379  1.0000
  O   O2        1.0  0.44400  0.89703  0.35194  1.0000
  O   O3        1.0  0.11106  0.23088  0.38930  1.0000
  O   O4        1.0  0.27753  0.56520  0.42751  1.0000
  O   O5        1.0  0.44306  0.89325  0.46648  1.0000
  O   O6        1.0  0.10988  0.22758  0.50508  1.0000
  O   O7        1.0  0.28014  0.57380  0.54210  1.0000
  O   O8        1.0  0.45826  0.88950  0.58618  1.0000
  O   O9        1.0  0.09605  0.20540  0.61550  1.0000
  O   O10       1.0  0.27788  0.06531  0.31389  1.0000
  O   O11       1.0  0.44380  0.39861  0.35195  1.0000
  O   O12       1.0  0.61156  0.73154  0.38928  1.0000
  O   O13       1.0  0.27998  0.06583  0.42804  1.0000
  O   O14       1.0  0.44195  0.40072  0.46625  1.0000
  O   O15       1.0  0.61703  0.73238  0.50531  1.0000
  O   O16       1.0  0.29731  0.06802  0.54373  1.0000
  O   O17       1.0  0.43496  0.40485  0.58106  1.0000
  O   O18       1.0  0.71252  0.68007  0.62105  1.0000
  O   O19       1.0  0.77711  0.56451  0.31389  1.0000
  O   O20       1.0  0.94356  0.89777  0.35189  1.0000
  O   O21       1.0  0.61051  0.23180  0.38896  1.0000
  O   O22       1.0  0.77672  0.56280  0.42790  1.0000
  O   O23       1.0  0.94329  0.89860  0.46563  1.0000
  O   O24       1.0  0.61000  0.23223  0.50244  1.0000
  O   O25       1.0  0.76922  0.54523  0.54314  1.0000
  O   O26       1.0  0.94035  0.89579  0.56957  1.0000
  O   O27       1.0  0.60411  0.26758  0.61891  1.0000
  O   O28       1.0  0.77708  0.06536  0.31387  1.0000
  O   O29       1.0  0.94431  0.39843  0.35195  1.0000
  O   O30       1.0  0.77586  0.06645  0.42785  1.0000
  O   O31       1.0  0.94788  0.39965  0.46635  1.0000
  O   O32       1.0  0.76306  0.07167  0.54287  1.0000
  O   O33       1.0  0.95353  0.40569  0.58334  1.0000
  O   O34       1.0  0.10676  0.78273  0.61758  1.0000
  O   O35       1.0  0.10768  0.73421  0.50473  1.0000
  O   O36       1.0  0.11091  0.73181  0.38919  1.0000
  H   H1        1.0  0.09034  0.08967  0.62596  1.0000
  H   H2        1.0  0.40520  0.36753  0.60396  1.0000
  H   H3        1.0  0.66807  0.53860  0.62581  1.0000
  H   H4        1.0  0.86073  0.74229  0.62185  1.0000
  H   H5        1.0  0.62483  0.19760  0.63666  1.0000
  H   H6        1.0  0.94740  0.38077  0.60659  1.0000
  H   H7        1.0  0.12004  0.70544  0.63498  1.0000
  H   H8        1.0  0.41164  0.89142  0.60812  1.0000
data_image21
_chemical_formula_structural       Ce16O36H8
_chemical_formula_sum              "Ce16 O36 H8"
_cell_length_a       7.75972
_cell_length_b       7.75972
_cell_length_c       41.4073
_cell_angle_alpha    90
_cell_angle_beta     90
_cell_angle_gamma    120

_space_group_name_H-M_alt    "P 1"
_space_group_IT_number       1

loop_
  _space_group_symop_operation_xyz
  'x, y, z'

loop_
  _atom_site_type_symbol
  _atom_site_label
  _atom_site_symmetry_multiplicity
  _atom_site_fract_x
  _atom_site_fract_y
  _atom_site_fract_z
  _atom_site_occupancy
  Ce  Ce1       1.0  0.11331  0.23589  0.33496  1.0000
  Ce  Ce2       1.0  0.44656  0.90227  0.41097  1.0000
  Ce  Ce3       1.0  0.27922  0.56806  0.48744  1.0000
  Ce  Ce4       1.0  0.11364  0.23534  0.56481  1.0000
  Ce  Ce5       1.0  0.61322  0.73579  0.33490  1.0000
  Ce  Ce6       1.0  0.44710  0.40266  0.41097  1.0000
  Ce  Ce7       1.0  0.27864  0.06896  0.48729  1.0000
  Ce  Ce8       1.0  0.61082  0.73870  0.56443  1.0000
  Ce  Ce9       1.0  0.61324  0.23588  0.33492  1.0000
  Ce  Ce10      1.0  0.94641  0.90190  0.41084  1.0000
  Ce  Ce11      1.0  0.78034  0.56944  0.48787  1.0000
  Ce  Ce12      1.0  0.60969  0.22826  0.56278  1.0000
  Ce  Ce13      1.0  0.94648  0.40270  0.41092  1.0000
  Ce  Ce14      1.0  0.78173  0.06925  0.48726  1.0000
  Ce  Ce15      1.0  0.12068  0.73724  0.56465  1.0000
  Ce  Ce16      1.0  0.11327  0.73582  0.33489  1.0000
  O   O1        1.0  0.27995  0.56907  0.31626  1.0000
  O   O2        1.0  0.44658  0.90255  0.35419  1.0000
  O   O3        1.0  0.11327  0.23586  0.39127  1.0000
  O   O4        1.0  0.27897  0.56721  0.43019  1.0000
  O   O5        1.0  0.44663  0.90224  0.46786  1.0000
  O   O6        1.0  0.11445  0.23697  0.50465  1.0000
  O   O7        1.0  0.26676  0.54967  0.54608  1.0000
  O   O8        1.0  0.45077  0.90745  0.57084  1.0000
  O   O9        1.0  0.11013  0.27263  0.62023  1.0000
  O   O10       1.0  0.27989  0.06935  0.31626  1.0000
  O   O11       1.0  0.44727  0.40279  0.35425  1.0000
  O   O12       1.0  0.61278  0.73611  0.39151  1.0000
  O   O13       1.0  0.27871  0.06957  0.43007  1.0000
  O   O14       1.0  0.45097  0.40421  0.46848  1.0000
  O   O15       1.0  0.61019  0.73742  0.50711  1.0000
  O   O16       1.0  0.27121  0.07921  0.54472  1.0000
  O   O17       1.0  0.45634  0.39977  0.58567  1.0000
  O   O18       1.0  0.59572  0.74597  0.61774  1.0000
  O   O19       1.0  0.77984  0.56925  0.31614  1.0000
  O   O20       1.0  0.94632  0.90183  0.35424  1.0000
  O   O21       1.0  0.61298  0.23502  0.39155  1.0000
  O   O22       1.0  0.78031  0.56947  0.42974  1.0000
  O   O23       1.0  0.94471  0.89847  0.46856  1.0000
  O   O24       1.0  0.61087  0.23030  0.50707  1.0000
  O   O25       1.0  0.77914  0.56573  0.54441  1.0000
  O   O26       1.0  0.94960  0.90036  0.58504  1.0000
  O   O27       1.0  0.52365  0.11837  0.62463  1.0000
  O   O28       1.0  0.78008  0.06925  0.31627  1.0000
  O   O29       1.0  0.94625  0.40285  0.35423  1.0000
  O   O30       1.0  0.78189  0.06978  0.43012  1.0000
  O   O31       1.0  0.94449  0.40426  0.46850  1.0000
  O   O32       1.0  0.80103  0.08146  0.54493  1.0000
  O   O33       1.0  0.92562  0.40702  0.58727  1.0000
  O   O34       1.0  0.17191  0.79147  0.62006  1.0000
  O   O35       1.0  0.11809  0.73766  0.50725  1.0000
  O   O36       1.0  0.11410  0.73602  0.39148  1.0000
  H   H1        1.0  0.07068  0.17892  0.63807  1.0000
  H   H2        1.0  0.42944  0.41637  0.60830  1.0000
  H   H3        1.0  0.58072  0.85211  0.62763  1.0000
  H   H4        1.0  0.93558  0.87658  0.60838  1.0000
  H   H5        1.0  0.38398  0.99398  0.62476  1.0000
  H   H6        1.0  0.96416  0.36780  0.60798  1.0000
  H   H7        1.0  0.52873  0.20381  0.64226  1.0000
  H   H8        1.0  0.18134  0.68962  0.63252  1.0000
data_image22
_chemical_formula_structural       Ce16O36H8
_chemical_formula_sum              "Ce16 O36 H8"
_cell_length_a       7.75972
_cell_length_b       7.75972
_cell_length_c       41.4073
_cell_angle_alpha    90
_cell_angle_beta     90
_cell_angle_gamma    120

_space_group_name_H-M_alt    "P 1"
_space_group_IT_number       1

loop_
  _space_group_symop_operation_xyz
  'x, y, z'

loop_
  _atom_site_type_symbol
  _atom_site_label
  _atom_site_symmetry_multiplicity
  _atom_site_fract_x
  _atom_site_fract_y
  _atom_site_fract_z
  _atom_site_occupancy
  Ce  Ce1       1.0  0.11070  0.22227  0.33223  1.0000
  Ce  Ce2       1.0  0.44399  0.88887  0.40829  1.0000
  Ce  Ce3       1.0  0.27729  0.55545  0.48491  1.0000
  Ce  Ce4       1.0  0.11123  0.22139  0.56182  1.0000
  Ce  Ce5       1.0  0.61066  0.72214  0.33225  1.0000
  Ce  Ce6       1.0  0.44402  0.38887  0.40829  1.0000
  Ce  Ce7       1.0  0.27731  0.05543  0.48491  1.0000
  Ce  Ce8       1.0  0.61134  0.72143  0.56180  1.0000
  Ce  Ce9       1.0  0.61069  0.22220  0.33224  1.0000
  Ce  Ce10      1.0  0.94405  0.88888  0.40828  1.0000
  Ce  Ce11      1.0  0.77731  0.55545  0.48490  1.0000
  Ce  Ce12      1.0  0.61126  0.22142  0.56180  1.0000
  Ce  Ce13      1.0  0.94408  0.38887  0.40828  1.0000
  Ce  Ce14      1.0  0.77733  0.05543  0.48490  1.0000
  Ce  Ce15      1.0  0.11129  0.72139  0.56182  1.0000
  Ce  Ce16      1.0  0.11067  0.72222  0.33224  1.0000
  O   O1        1.0  0.27732  0.55548  0.31355  1.0000
  O   O2        1.0  0.44406  0.88885  0.35156  1.0000
  O   O3        1.0  0.11064  0.22215  0.38880  1.0000
  O   O4        1.0  0.27725  0.55539  0.42742  1.0000
  O   O5        1.0  0.44398  0.88881  0.46577  1.0000
  O   O6        1.0  0.11057  0.22213  0.50405  1.0000
  O   O7        1.0  0.27717  0.55541  0.54243  1.0000
  O   O8        1.0  0.44458  0.88853  0.58028  1.0000
  O   O9        1.0  0.10196  0.23128  0.61600  1.0000
  O   O10       1.0  0.27742  0.05552  0.31358  1.0000
  O   O11       1.0  0.44410  0.38899  0.35158  1.0000
  O   O12       1.0  0.61066  0.72221  0.38881  1.0000
  O   O13       1.0  0.27731  0.05547  0.42742  1.0000
  O   O14       1.0  0.44404  0.38891  0.46577  1.0000
  O   O15       1.0  0.61061  0.72215  0.50407  1.0000
  O   O16       1.0  0.27716  0.05537  0.54244  1.0000
  O   O17       1.0  0.44438  0.38844  0.58026  1.0000
  O   O18       1.0  0.60209  0.73111  0.61600  1.0000
  O   O19       1.0  0.77735  0.55555  0.31354  1.0000
  O   O20       1.0  0.94404  0.88883  0.35155  1.0000
  O   O21       1.0  0.61059  0.22210  0.38879  1.0000
  O   O22       1.0  0.77734  0.55546  0.42741  1.0000
  O   O23       1.0  0.94397  0.88882  0.46579  1.0000
  O   O24       1.0  0.61056  0.22211  0.50406  1.0000
  O   O25       1.0  0.77728  0.55546  0.54242  1.0000
  O   O26       1.0  0.94441  0.88839  0.58029  1.0000
  O   O27       1.0  0.60174  0.23139  0.61599  1.0000
  O   O28       1.0  0.77746  0.05559  0.31357  1.0000
  O   O29       1.0  0.94409  0.38897  0.35158  1.0000
  O   O30       1.0  0.77740  0.05554  0.42741  1.0000
  O   O31       1.0  0.94404  0.38892  0.46579  1.0000
  O   O32       1.0  0.77727  0.05542  0.54243  1.0000
  O   O33       1.0  0.94419  0.38828  0.58027  1.0000
  O   O34       1.0  0.10224  0.73092  0.61600  1.0000
  O   O35       1.0  0.11063  0.72218  0.50406  1.0000
  O   O36       1.0  0.11072  0.72226  0.38882  1.0000
  H   H1        1.0  0.15309  0.17744  0.63227  1.0000
  H   H2        1.0  0.44743  0.38398  0.60390  1.0000
  H   H3        1.0  0.65249  0.67658  0.63227  1.0000
  H   H4        1.0  0.94687  0.88383  0.60393  1.0000
  H   H5        1.0  0.65249  0.17735  0.63229  1.0000
  H   H6        1.0  0.94705  0.38414  0.60392  1.0000
  H   H7        1.0  0.15306  0.67663  0.63224  1.0000
  H   H8        1.0  0.44727  0.88373  0.60392  1.0000
data_image23
_chemical_formula_structural       Ce16O36H8
_chemical_formula_sum              "Ce16 O36 H8"
_cell_length_a       7.75972
_cell_length_b       7.75972
_cell_length_c       41.4073
_cell_angle_alpha    90
_cell_angle_beta     90
_cell_angle_gamma    120

_space_group_name_H-M_alt    "P 1"
_space_group_IT_number       1

loop_
  _space_group_symop_operation_xyz
  'x, y, z'

loop_
  _atom_site_type_symbol
  _atom_site_label
  _atom_site_symmetry_multiplicity
  _atom_site_fract_x
  _atom_site_fract_y
  _atom_site_fract_z
  _atom_site_occupancy
  Ce  Ce1       1.0  0.11127  0.22206  0.33239  1.0000
  Ce  Ce2       1.0  0.44455  0.88884  0.40838  1.0000
  Ce  Ce3       1.0  0.27779  0.55565  0.48491  1.0000
  Ce  Ce4       1.0  0.11153  0.22375  0.56174  1.0000
  Ce  Ce5       1.0  0.61128  0.72206  0.33239  1.0000
  Ce  Ce6       1.0  0.44454  0.38885  0.40838  1.0000
  Ce  Ce7       1.0  0.27790  0.05582  0.48490  1.0000
  Ce  Ce8       1.0  0.61156  0.72378  0.56174  1.0000
  Ce  Ce9       1.0  0.61128  0.22205  0.33239  1.0000
  Ce  Ce10      1.0  0.94454  0.88884  0.40838  1.0000
  Ce  Ce11      1.0  0.77788  0.55581  0.48490  1.0000
  Ce  Ce12      1.0  0.60994  0.22215  0.56168  1.0000
  Ce  Ce13      1.0  0.94455  0.38885  0.40838  1.0000
  Ce  Ce14      1.0  0.77778  0.05564  0.48491  1.0000
  Ce  Ce15      1.0  0.10995  0.72216  0.56168  1.0000
  Ce  Ce16      1.0  0.11128  0.72204  0.33239  1.0000
  O   O1        1.0  0.27797  0.55539  0.31372  1.0000
  O   O2        1.0  0.44458  0.88871  0.35171  1.0000
  O   O3        1.0  0.11119  0.22214  0.38891  1.0000
  O   O4        1.0  0.27792  0.55553  0.42750  1.0000
  O   O5        1.0  0.44451  0.88912  0.46580  1.0000
  O   O6        1.0  0.11096  0.22228  0.50403  1.0000
  O   O7        1.0  0.27729  0.55514  0.54240  1.0000
  O   O8        1.0  0.44720  0.89185  0.58047  1.0000
  O   O9        1.0  0.09382  0.19715  0.61584  1.0000
  O   O10       1.0  0.27795  0.05539  0.31373  1.0000
  O   O11       1.0  0.44460  0.38872  0.35171  1.0000
  O   O12       1.0  0.61123  0.72217  0.38891  1.0000
  O   O13       1.0  0.27780  0.05558  0.42749  1.0000
  O   O14       1.0  0.44450  0.38893  0.46582  1.0000
  O   O15       1.0  0.61094  0.72227  0.50403  1.0000
  O   O16       1.0  0.27850  0.05645  0.54238  1.0000
  O   O17       1.0  0.44208  0.38666  0.58051  1.0000
  O   O18       1.0  0.59384  0.69715  0.61584  1.0000
  O   O19       1.0  0.77796  0.55539  0.31373  1.0000
  O   O20       1.0  0.94463  0.88874  0.35171  1.0000
  O   O21       1.0  0.61127  0.22209  0.38894  1.0000
  O   O22       1.0  0.77784  0.55561  0.42749  1.0000
  O   O23       1.0  0.94451  0.88893  0.46582  1.0000
  O   O24       1.0  0.61139  0.22262  0.50404  1.0000
  O   O25       1.0  0.77848  0.55642  0.54238  1.0000
  O   O26       1.0  0.94209  0.88666  0.58051  1.0000
  O   O27       1.0  0.63738  0.24082  0.61580  1.0000
  O   O28       1.0  0.77797  0.05538  0.31372  1.0000
  O   O29       1.0  0.94462  0.38875  0.35170  1.0000
  O   O30       1.0  0.77792  0.05551  0.42749  1.0000
  O   O31       1.0  0.94451  0.38911  0.46580  1.0000
  O   O32       1.0  0.77733  0.05517  0.54240  1.0000
  O   O33       1.0  0.94719  0.39182  0.58047  1.0000
  O   O34       1.0  0.13740  0.74081  0.61581  1.0000
  O   O35       1.0  0.11137  0.72261  0.50404  1.0000
  O   O36       1.0  0.11124  0.72209  0.38893  1.0000
  H   H1        1.0  0.15972  0.30282  0.63179  1.0000
  H   H2        1.0  0.47031  0.41608  0.60366  1.0000
  H   H3        1.0  0.65972  0.80284  0.63179  1.0000
  H   H4        1.0  0.97029  0.91604  0.60366  1.0000
  H   H5        1.0  0.53304  0.17640  0.63199  1.0000
  H   H6        1.0  0.91674  0.36393  0.60361  1.0000
  H   H7        1.0  0.03302  0.67636  0.63199  1.0000
  H   H8        1.0  0.41671  0.86392  0.60361  1.0000
data_image24
_chemical_formula_structural       Ce16O34H4
_chemical_formula_sum              "Ce16 O34 H4"
_cell_length_a       3.87986
_cell_length_b       15.5194
_cell_length_c       41.4073
_cell_angle_alpha    90
_cell_angle_beta     90
_cell_angle_gamma    120

_space_group_name_H-M_alt    "P 1"
_space_group_IT_number       1

loop_
  _space_group_symop_operation_xyz
  'x, y, z'

loop_
  _atom_site_type_symbol
  _atom_site_label
  _atom_site_symmetry_multiplicity
  _atom_site_fract_x
  _atom_site_fract_y
  _atom_site_fract_z
  _atom_site_occupancy
  Ce  Ce1       1.0  0.45798  0.04259  0.35638  1.0000
  Ce  Ce2       1.0  0.44986  0.03853  0.58611  1.0000
  Ce  Ce3       1.0  0.12485  0.12603  0.43255  1.0000
  Ce  Ce4       1.0  0.79231  0.20976  0.50948  1.0000
  Ce  Ce5       1.0  0.45738  0.29229  0.35637  1.0000
  Ce  Ce6       1.0  0.44862  0.28793  0.58677  1.0000
  Ce  Ce7       1.0  0.12346  0.37533  0.43247  1.0000
  Ce  Ce8       1.0  0.78751  0.45737  0.50929  1.0000
  Ce  Ce9       1.0  0.45708  0.54214  0.35637  1.0000
  Ce  Ce10      1.0  0.47349  0.55037  0.58397  1.0000
  Ce  Ce11      1.0  0.12286  0.62503  0.43233  1.0000
  Ce  Ce12      1.0  0.79218  0.70971  0.50813  1.0000
  Ce  Ce13      1.0  0.45768  0.79244  0.35644  1.0000
  Ce  Ce14      1.0  0.46097  0.79409  0.58457  1.0000
  Ce  Ce15      1.0  0.12547  0.87634  0.43226  1.0000
  Ce  Ce16      1.0  0.79262  0.95992  0.50895  1.0000
  O   O1        1.0  0.45883  0.04301  0.41297  1.0000
  O   O2        1.0  0.46497  0.04610  0.52921  1.0000
  O   O3        1.0  0.58986  0.10842  0.64397  1.0000
  O   O4        1.0  0.79094  0.20906  0.33766  1.0000
  O   O5        1.0  0.12405  0.12562  0.37564  1.0000
  O   O6        1.0  0.79263  0.20992  0.45178  1.0000
  O   O7        1.0  0.12265  0.12493  0.48973  1.0000
  O   O8        1.0  0.82067  0.22394  0.56766  1.0000
  O   O9        1.0  0.11074  0.11895  0.59510  1.0000
  O   O10       1.0  0.45676  0.29198  0.41283  1.0000
  O   O11       1.0  0.45460  0.29091  0.52775  1.0000
  O   O12       1.0  0.38821  0.25743  0.64317  1.0000
  O   O13       1.0  0.79059  0.45889  0.33763  1.0000
  O   O14       1.0  0.12437  0.37578  0.37573  1.0000
  O   O15       1.0  0.78803  0.45761  0.45153  1.0000
  O   O16       1.0  0.12620  0.37671  0.49032  1.0000
  O   O17       1.0  0.78548  0.45637  0.56664  1.0000
  O   O18       1.0  0.15252  0.38979  0.61102  1.0000
  O   O19       1.0  0.45729  0.54224  0.41308  1.0000
  O   O20       1.0  0.45868  0.54296  0.52896  1.0000
  O   O21       1.0  0.79070  0.70894  0.33781  1.0000
  O   O22       1.0  0.12304  0.62511  0.37574  1.0000
  O   O23       1.0  0.79221  0.70971  0.45144  1.0000
  O   O24       1.0  0.11981  0.62352  0.48945  1.0000
  O   O25       1.0  0.79318  0.71020  0.56507  1.0000
  O   O26       1.0  0.12702  0.62712  0.60319  1.0000
  O   O27       1.0  0.45702  0.79211  0.41280  1.0000
  O   O28       1.0  0.45269  0.78996  0.52709  1.0000
  O   O29       1.0  0.79050  0.95884  0.33769  1.0000
  O   O30       1.0  0.12488  0.87604  0.37573  1.0000
  O   O31       1.0  0.79073  0.95897  0.45124  1.0000
  O   O32       1.0  0.12847  0.87785  0.48992  1.0000
  O   O33       1.0  0.77311  0.95016  0.56476  1.0000
  O   O34       1.0  0.11883  0.87302  0.60391  1.0000
  H   H1        1.0  0.88153  0.15384  0.64674  1.0000
  H   H2        1.0  0.48031  0.15392  0.64676  1.0000
  H   H3        1.0  0.47503  0.30146  0.66185  1.0000
  H   H4        1.0  0.10635  0.36734  0.63343  1.0000
data_image25
_chemical_formula_structural       Ce8O19H6
_chemical_formula_sum              "Ce8 O19 H6"
_cell_length_a       3.87986
_cell_length_b       7.75972
_cell_length_c       41.4073
_cell_angle_alpha    90
_cell_angle_beta     90
_cell_angle_gamma    120

_space_group_name_H-M_alt    "P 1"
_space_group_IT_number       1

loop_
  _space_group_symop_operation_xyz
  'x, y, z'

loop_
  _atom_site_type_symbol
  _atom_site_label
  _atom_site_symmetry_multiplicity
  _atom_site_fract_x
  _atom_site_fract_y
  _atom_site_fract_z
  _atom_site_occupancy
  Ce  Ce1       1.0  0.44349  0.07060  0.35465  1.0000
  Ce  Ce2       1.0  0.45571  0.08282  0.58296  1.0000
  Ce  Ce3       1.0  0.10977  0.23688  0.43076  1.0000
  Ce  Ce4       1.0  0.77966  0.40675  0.50694  1.0000
  Ce  Ce5       1.0  0.44352  0.57063  0.35468  1.0000
  Ce  Ce6       1.0  0.43950  0.56660  0.58466  1.0000
  Ce  Ce7       1.0  0.11087  0.73799  0.43060  1.0000
  Ce  Ce8       1.0  0.77529  0.90239  0.50753  1.0000
  O   O1        1.0  0.44450  0.07162  0.41139  1.0000
  O   O2        1.0  0.45135  0.07843  0.52774  1.0000
  O   O3        1.0  0.59661  0.22366  0.64422  1.0000
  O   O4        1.0  0.77681  0.40391  0.33608  1.0000
  O   O5        1.0  0.10917  0.23628  0.37397  1.0000
  O   O6        1.0  0.77983  0.40692  0.45000  1.0000
  O   O7        1.0  0.10531  0.23239  0.48766  1.0000
  O   O8        1.0  0.80157  0.42868  0.56533  1.0000
  O   O9        1.0  0.10012  0.22723  0.59394  1.0000
  O   O10       1.0  0.44264  0.56975  0.41103  1.0000
  O   O11       1.0  0.43712  0.56422  0.52496  1.0000
  O   O12       1.0  0.37407  0.50115  0.64078  1.0000
  O   O13       1.0  0.77636  0.90347  0.33594  1.0000
  O   O14       1.0  0.11097  0.73809  0.37402  1.0000
  O   O15       1.0  0.77438  0.90150  0.44962  1.0000
  O   O16       1.0  0.11583  0.74295  0.48860  1.0000
  O   O17       1.0  0.75637  0.88344  0.56398  1.0000
  O   O18       1.0  0.13099  0.75810  0.60817  1.0000
  O   O19       1.0  0.79144  0.91859  0.66892  1.0000
  H   H1        1.0  0.89331  0.31910  0.64559  1.0000
  H   H2        1.0  0.49068  0.31909  0.64559  1.0000
  H   H3        1.0  0.48386  0.61098  0.65636  1.0000
  H   H4        1.0  0.10565  0.73282  0.63137  1.0000
  H   H5        1.0  0.07906  0.00867  0.66733  1.0000
  H   H6        1.0  0.68418  0.00873  0.66730  1.0000
data_image26
_chemical_formula_structural       Ce36O73H2
_chemical_formula_sum              "Ce36 O73 H2"
_cell_length_a       11.6396
_cell_length_b       11.6396
_cell_length_c       41.4073
_cell_angle_alpha    90
_cell_angle_beta     90
_cell_angle_gamma    120

_space_group_name_H-M_alt    "P 1"
_space_group_IT_number       1

loop_
  _space_group_symop_operation_xyz
  'x, y, z'

loop_
  _atom_site_type_symbol
  _atom_site_label
  _atom_site_symmetry_multiplicity
  _atom_site_fract_x
  _atom_site_fract_y
  _atom_site_fract_z
  _atom_site_occupancy
  Ce  Ce1       1.0  0.27754  0.27724  0.46211  1.0000
  Ce  Ce2       1.0  0.16539  0.05389  0.53769  1.0000
  Ce  Ce3       1.0  0.05498  0.16562  0.38601  1.0000
  Ce  Ce4       1.0  0.05414  0.16343  0.61436  1.0000
  Ce  Ce5       1.0  0.27733  0.60942  0.46221  1.0000
  Ce  Ce6       1.0  0.16762  0.38815  0.53943  1.0000
  Ce  Ce7       1.0  0.05491  0.49850  0.38602  1.0000
  Ce  Ce8       1.0  0.05477  0.50039  0.61449  1.0000
  Ce  Ce9       1.0  0.27760  0.94318  0.46188  1.0000
  Ce  Ce10      1.0  0.16544  0.72139  0.53823  1.0000
  Ce  Ce11      1.0  0.05491  0.83181  0.38600  1.0000
  Ce  Ce12      1.0  0.05452  0.83240  0.61372  1.0000
  Ce  Ce13      1.0  0.61020  0.27653  0.46206  1.0000
  Ce  Ce14      1.0  0.50010  0.05511  0.53867  1.0000
  Ce  Ce15      1.0  0.38825  0.16539  0.38601  1.0000
  Ce  Ce16      1.0  0.37823  0.15954  0.61395  1.0000
  Ce  Ce17      1.0  0.60947  0.60916  0.46211  1.0000
  Ce  Ce18      1.0  0.49868  0.38809  0.53944  1.0000
  Ce  Ce19      1.0  0.38813  0.49858  0.38597  1.0000
  Ce  Ce20      1.0  0.38835  0.49852  0.61921  1.0000
  Ce  Ce21      1.0  0.60983  0.94261  0.46210  1.0000
  Ce  Ce22      1.0  0.49866  0.71917  0.53944  1.0000
  Ce  Ce23      1.0  0.38821  0.83179  0.38602  1.0000
  Ce  Ce24      1.0  0.38656  0.83217  0.61449  1.0000
  Ce  Ce25      1.0  0.94411  0.27692  0.46209  1.0000
  Ce  Ce26      1.0  0.83252  0.05428  0.53788  1.0000
  Ce  Ce27      1.0  0.72146  0.16525  0.38610  1.0000
  Ce  Ce28      1.0  0.72650  0.16042  0.61443  1.0000
  Ce  Ce29      1.0  0.94356  0.60915  0.46187  1.0000
  Ce  Ce30      1.0  0.83174  0.38675  0.53867  1.0000
  Ce  Ce31      1.0  0.72131  0.49846  0.38601  1.0000
  Ce  Ce32      1.0  0.72743  0.50871  0.61395  1.0000
  Ce  Ce33      1.0  0.94353  0.94319  0.46160  1.0000
  Ce  Ce34      1.0  0.83290  0.72138  0.53768  1.0000
  Ce  Ce35      1.0  0.72111  0.83174  0.38601  1.0000
  Ce  Ce36      1.0  0.72350  0.83277  0.61436  1.0000
  O   O1        1.0  0.26833  0.25852  0.63170  1.0000
  O   O2        1.0  0.16584  0.05392  0.48084  1.0000
  O   O3        1.0  0.27707  0.27707  0.51936  1.0000
  O   O4        1.0  0.27713  0.27660  0.40532  1.0000
  O   O5        1.0  0.16591  0.05415  0.36737  1.0000
  O   O6        1.0  0.16104  0.04744  0.59389  1.0000
  O   O7        1.0  0.05635  0.16761  0.55794  1.0000
  O   O8        1.0  0.05508  0.16578  0.44256  1.0000
  O   O9        1.0  0.26669  0.62027  0.63307  1.0000
  O   O10       1.0  0.16697  0.38876  0.48135  1.0000
  O   O11       1.0  0.27708  0.60975  0.52039  1.0000
  O   O12       1.0  0.27710  0.60954  0.40545  1.0000
  O   O13       1.0  0.16602  0.38759  0.36724  1.0000
  O   O14       1.0  0.16636  0.38962  0.59693  1.0000
  O   O15       1.0  0.05173  0.49643  0.55873  1.0000
  O   O16       1.0  0.05468  0.49846  0.44261  1.0000
  O   O17       1.0  0.27575  0.94342  0.63312  1.0000
  O   O18       1.0  0.16622  0.72053  0.48105  1.0000
  O   O19       1.0  0.27901  0.94357  0.51910  1.0000
  O   O20       1.0  0.27718  0.94299  0.40530  1.0000
  O   O21       1.0  0.16602  0.72071  0.36732  1.0000
  O   O22       1.0  0.16325  0.72367  0.59397  1.0000
  O   O23       1.0  0.05491  0.83189  0.55609  1.0000
  O   O24       1.0  0.05495  0.83176  0.44242  1.0000
  O   O25       1.0  0.61204  0.27506  0.64312  1.0000
  O   O26       1.0  0.50030  0.05521  0.48116  1.0000
  O   O27       1.0  0.61031  0.27648  0.52015  1.0000
  O   O28       1.0  0.61017  0.27647  0.40532  1.0000
  O   O29       1.0  0.49929  0.05411  0.36735  1.0000
  O   O30       1.0  0.50394  0.06416  0.59602  1.0000
  O   O31       1.0  0.38498  0.16453  0.55782  1.0000
  O   O32       1.0  0.38833  0.16542  0.44252  1.0000
  O   O33       1.0  0.62851  0.61866  0.63169  1.0000
  O   O34       1.0  0.49938  0.38725  0.48136  1.0000
  O   O35       1.0  0.60963  0.60960  0.51937  1.0000
  O   O36       1.0  0.61008  0.60953  0.40531  1.0000
  O   O37       1.0  0.49920  0.38749  0.36725  1.0000
  O   O38       1.0  0.50495  0.38196  0.59745  1.0000
  O   O39       1.0  0.39000  0.49677  0.55866  1.0000
  O   O40       1.0  0.38828  0.49849  0.44255  1.0000
  O   O41       1.0  0.61503  0.94799  0.63328  1.0000
  O   O42       1.0  0.49799  0.71981  0.48135  1.0000
  O   O43       1.0  0.60978  0.94237  0.51939  1.0000
  O   O44       1.0  0.61008  0.94259  0.40533  1.0000
  O   O45       1.0  0.49910  0.72069  0.36724  1.0000
  O   O46       1.0  0.49720  0.72040  0.59692  1.0000
  O   O47       1.0  0.39047  0.83519  0.55873  1.0000
  O   O48       1.0  0.38828  0.83206  0.44260  1.0000
  O   O49       1.0  0.93884  0.27180  0.63328  1.0000
  O   O50       1.0  0.83217  0.05454  0.48084  1.0000
  O   O51       1.0  0.94438  0.27701  0.51938  1.0000
  O   O52       1.0  0.94407  0.27662  0.40533  1.0000
  O   O53       1.0  0.83258  0.05417  0.36739  1.0000
  O   O54       1.0  0.83413  0.05278  0.59462  1.0000
  O   O55       1.0  0.72320  0.16368  0.55778  1.0000
  O   O56       1.0  0.72137  0.16536  0.44243  1.0000
  O   O57       1.0  0.94356  0.61129  0.63312  1.0000
  O   O58       1.0  0.83146  0.38647  0.48116  1.0000
  O   O59       1.0  0.94323  0.60780  0.51910  1.0000
  O   O60       1.0  0.94368  0.60948  0.40530  1.0000
  O   O61       1.0  0.83261  0.38746  0.36734  1.0000
  O   O62       1.0  0.82288  0.38304  0.59601  1.0000
  O   O63       1.0  0.72230  0.50179  0.55781  1.0000
  O   O64       1.0  0.72129  0.49840  0.44252  1.0000
  O   O65       1.0  0.94366  0.94322  0.63340  1.0000
  O   O66       1.0  0.83274  0.72083  0.48084  1.0000
  O   O67       1.0  0.94255  0.94415  0.51899  1.0000
  O   O68       1.0  0.94360  0.94308  0.40533  1.0000
  O   O69       1.0  0.83260  0.72085  0.36737  1.0000
  O   O70       1.0  0.83955  0.72587  0.59388  1.0000
  O   O71       1.0  0.71924  0.83048  0.55795  1.0000
  O   O72       1.0  0.72097  0.83161  0.44256  1.0000
  O   O73       1.0  0.38366  0.50316  0.67091  1.0000
  H   H1        1.0  0.34335  0.54517  0.68322  1.0000
  H   H2        1.0  0.61066  0.27651  0.66668  1.0000
data_image27
_chemical_formula_structural       Ce36O73H2
_chemical_formula_sum              "Ce36 O73 H2"
_cell_length_a       11.6396
_cell_length_b       11.6396
_cell_length_c       41.4073
_cell_angle_alpha    90
_cell_angle_beta     90
_cell_angle_gamma    120

_space_group_name_H-M_alt    "P 1"
_space_group_IT_number       1

loop_
  _space_group_symop_operation_xyz
  'x, y, z'

loop_
  _atom_site_type_symbol
  _atom_site_label
  _atom_site_symmetry_multiplicity
  _atom_site_fract_x
  _atom_site_fract_y
  _atom_site_fract_z
  _atom_site_occupancy
  Ce  Ce1       1.0  0.27743  0.27740  0.46203  1.0000
  Ce  Ce2       1.0  0.16631  0.05514  0.53846  1.0000
  Ce  Ce3       1.0  0.05513  0.16600  0.38597  1.0000
  Ce  Ce4       1.0  0.04740  0.16069  0.61450  1.0000
  Ce  Ce5       1.0  0.27700  0.60974  0.46205  1.0000
  Ce  Ce6       1.0  0.16788  0.38833  0.53933  1.0000
  Ce  Ce7       1.0  0.05504  0.49910  0.38596  1.0000
  Ce  Ce8       1.0  0.05496  0.49999  0.61459  1.0000
  Ce  Ce9       1.0  0.27713  0.94380  0.46188  1.0000
  Ce  Ce10      1.0  0.16635  0.72158  0.53830  1.0000
  Ce  Ce11      1.0  0.05500  0.83247  0.38599  1.0000
  Ce  Ce12      1.0  0.05497  0.83247  0.61374  1.0000
  Ce  Ce13      1.0  0.61044  0.27741  0.46203  1.0000
  Ce  Ce14      1.0  0.49986  0.05515  0.53799  1.0000
  Ce  Ce15      1.0  0.38839  0.16602  0.38597  1.0000
  Ce  Ce16      1.0  0.39071  0.16077  0.61458  1.0000
  Ce  Ce17      1.0  0.61022  0.60973  0.46206  1.0000
  Ce  Ce18      1.0  0.49780  0.38828  0.53936  1.0000
  Ce  Ce19      1.0  0.38835  0.49918  0.38594  1.0000
  Ce  Ce20      1.0  0.39445  0.51158  0.61711  1.0000
  Ce  Ce21      1.0  0.61053  0.94353  0.46179  1.0000
  Ce  Ce22      1.0  0.49921  0.72101  0.53839  1.0000
  Ce  Ce23      1.0  0.38823  0.83236  0.38600  1.0000
  Ce  Ce24      1.0  0.38832  0.83431  0.61417  1.0000
  Ce  Ce25      1.0  0.94441  0.27738  0.46203  1.0000
  Ce  Ce26      1.0  0.83265  0.05514  0.53798  1.0000
  Ce  Ce27      1.0  0.72178  0.16604  0.38603  1.0000
  Ce  Ce28      1.0  0.72121  0.16491  0.61465  1.0000
  Ce  Ce29      1.0  0.94365  0.60986  0.46199  1.0000
  Ce  Ce30      1.0  0.83216  0.38690  0.53863  1.0000
  Ce  Ce31      1.0  0.72157  0.49911  0.38596  1.0000
  Ce  Ce32      1.0  0.72245  0.50000  0.61466  1.0000
  Ce  Ce33      1.0  0.94412  0.94380  0.46188  1.0000
  Ce  Ce34      1.0  0.83266  0.72156  0.53833  1.0000
  Ce  Ce35      1.0  0.72168  0.83236  0.38600  1.0000
  Ce  Ce36      1.0  0.72323  0.83418  0.61419  1.0000
  O   O1        1.0  0.25511  0.23199  0.64208  1.0000
  O   O2        1.0  0.16636  0.05538  0.48105  1.0000
  O   O3        1.0  0.27736  0.27728  0.52008  1.0000
  O   O4        1.0  0.27733  0.27715  0.40524  1.0000
  O   O5        1.0  0.16613  0.05473  0.36730  1.0000
  O   O6        1.0  0.16644  0.05573  0.59451  1.0000
  O   O7        1.0  0.05321  0.16627  0.55799  1.0000
  O   O8        1.0  0.05529  0.16610  0.44246  1.0000
  O   O9        1.0  0.27351  0.62064  0.63222  1.0000
  O   O10       1.0  0.16691  0.38777  0.48134  1.0000
  O   O11       1.0  0.27635  0.61002  0.51929  1.0000
  O   O12       1.0  0.27716  0.61017  0.40530  1.0000
  O   O13       1.0  0.16619  0.38822  0.36721  1.0000
  O   O14       1.0  0.17248  0.38411  0.59773  1.0000
  O   O15       1.0  0.05753  0.49655  0.55889  1.0000
  O   O16       1.0  0.05522  0.49904  0.44259  1.0000
  O   O17       1.0  0.27871  0.94338  0.63277  1.0000
  O   O18       1.0  0.16497  0.72112  0.48108  1.0000
  O   O19       1.0  0.27834  0.94435  0.51913  1.0000
  O   O20       1.0  0.27726  0.94363  0.40527  1.0000
  O   O21       1.0  0.16596  0.72130  0.36731  1.0000
  O   O22       1.0  0.16219  0.72286  0.59421  1.0000
  O   O23       1.0  0.05612  0.83472  0.55701  1.0000
  O   O24       1.0  0.05510  0.83270  0.44245  1.0000
  O   O25       1.0  0.61006  0.27390  0.63300  1.0000
  O   O26       1.0  0.49986  0.05522  0.48082  1.0000
  O   O27       1.0  0.61096  0.27783  0.51934  1.0000
  O   O28       1.0  0.61053  0.27724  0.40527  1.0000
  O   O29       1.0  0.49953  0.05471  0.36733  1.0000
  O   O30       1.0  0.50021  0.05369  0.59468  1.0000
  O   O31       1.0  0.39042  0.16620  0.55801  1.0000
  O   O32       1.0  0.38824  0.16609  0.44246  1.0000
  O   O33       1.0  0.62382  0.61980  0.63169  1.0000
  O   O34       1.0  0.49832  0.38776  0.48134  1.0000
  O   O35       1.0  0.61121  0.61005  0.51929  1.0000
  O   O36       1.0  0.61051  0.61016  0.40529  1.0000
  O   O37       1.0  0.49959  0.38821  0.36721  1.0000
  O   O38       1.0  0.48815  0.38346  0.59786  1.0000
  O   O39       1.0  0.39027  0.50295  0.55765  1.0000
  O   O40       1.0  0.38825  0.49901  0.44246  1.0000
  O   O41       1.0  0.61245  0.94730  0.63353  1.0000
  O   O42       1.0  0.49916  0.72086  0.48104  1.0000
  O   O43       1.0  0.61062  0.94377  0.51916  1.0000
  O   O44       1.0  0.61042  0.94331  0.40532  1.0000
  O   O45       1.0  0.49952  0.72142  0.36728  1.0000
  O   O46       1.0  0.50058  0.72453  0.59589  1.0000
  O   O47       1.0  0.38781  0.83186  0.55761  1.0000
  O   O48       1.0  0.38800  0.83225  0.44255  1.0000
  O   O49       1.0  0.94153  0.27392  0.63308  1.0000
  O   O50       1.0  0.83280  0.05519  0.48083  1.0000
  O   O51       1.0  0.94424  0.27776  0.51933  1.0000
  O   O52       1.0  0.94420  0.27723  0.40526  1.0000
  O   O53       1.0  0.83275  0.05467  0.36735  1.0000
  O   O54       1.0  0.83094  0.05373  0.59468  1.0000
  O   O55       1.0  0.72207  0.16674  0.55767  1.0000
  O   O56       1.0  0.72180  0.16608  0.44241  1.0000
  O   O57       1.0  0.94377  0.60974  0.63335  1.0000
  O   O58       1.0  0.83275  0.38806  0.48104  1.0000
  O   O59       1.0  0.94250  0.60774  0.52008  1.0000
  O   O60       1.0  0.94376  0.61003  0.40542  1.0000
  O   O61       1.0  0.83288  0.38820  0.36727  1.0000
  O   O62       1.0  0.83353  0.38936  0.59522  1.0000
  O   O63       1.0  0.71621  0.49646  0.55898  1.0000
  O   O64       1.0  0.72131  0.49908  0.44259  1.0000
  O   O65       1.0  0.94200  0.94353  0.63275  1.0000
  O   O66       1.0  0.83367  0.72115  0.48108  1.0000
  O   O67       1.0  0.94335  0.94427  0.51916  1.0000
  O   O68       1.0  0.94391  0.94361  0.40527  1.0000
  O   O69       1.0  0.83287  0.72132  0.36731  1.0000
  O   O70       1.0  0.83851  0.72308  0.59425  1.0000
  O   O71       1.0  0.72131  0.83172  0.55768  1.0000
  O   O72       1.0  0.72178  0.83226  0.44256  1.0000
  O   O73       1.0  0.36241  0.46492  0.66940  1.0000
  H   H1        1.0  0.33993  0.50933  0.68602  1.0000
  H   H2        1.0  0.28434  0.29877  0.65986  1.0000
data_image28
_chemical_formula_structural       Ce36O73H2
_chemical_formula_sum              "Ce36 O73 H2"
_cell_length_a       11.6396
_cell_length_b       11.6396
_cell_length_c       41.4073
_cell_angle_alpha    90
_cell_angle_beta     90
_cell_angle_gamma    120

_space_group_name_H-M_alt    "P 1"
_space_group_IT_number       1

loop_
  _space_group_symop_operation_xyz
  'x, y, z'

loop_
  _atom_site_type_symbol
  _atom_site_label
  _atom_site_symmetry_multiplicity
  _atom_site_fract_x
  _atom_site_fract_y
  _atom_site_fract_z
  _atom_site_occupancy
  Ce  Ce1       1.0  0.27843  0.27770  0.46196  1.0000
  Ce  Ce2       1.0  0.16712  0.05517  0.53837  1.0000
  Ce  Ce3       1.0  0.05611  0.16647  0.38597  1.0000
  Ce  Ce4       1.0  0.05580  0.16519  0.61445  1.0000
  Ce  Ce5       1.0  0.27830  0.61068  0.46195  1.0000
  Ce  Ce6       1.0  0.16805  0.38899  0.53873  1.0000
  Ce  Ce7       1.0  0.05613  0.49972  0.38595  1.0000
  Ce  Ce8       1.0  0.05587  0.49992  0.61438  1.0000
  Ce  Ce9       1.0  0.27839  0.94419  0.46191  1.0000
  Ce  Ce10      1.0  0.16712  0.72194  0.53840  1.0000
  Ce  Ce11      1.0  0.05613  0.83308  0.38597  1.0000
  Ce  Ce12      1.0  0.05534  0.83236  0.61423  1.0000
  Ce  Ce13      1.0  0.61155  0.27747  0.46197  1.0000
  Ce  Ce14      1.0  0.50039  0.05540  0.53848  1.0000
  Ce  Ce15      1.0  0.38946  0.16644  0.38596  1.0000
  Ce  Ce16      1.0  0.38780  0.16486  0.61464  1.0000
  Ce  Ce17      1.0  0.61163  0.61073  0.46198  1.0000
  Ce  Ce18      1.0  0.49995  0.38867  0.53870  1.0000
  Ce  Ce19      1.0  0.38946  0.49975  0.38594  1.0000
  Ce  Ce20      1.0  0.39249  0.50370  0.61522  1.0000
  Ce  Ce21      1.0  0.61162  0.94414  0.46194  1.0000
  Ce  Ce22      1.0  0.50035  0.72196  0.53849  1.0000
  Ce  Ce23      1.0  0.38942  0.83301  0.38595  1.0000
  Ce  Ce24      1.0  0.38867  0.83377  0.61452  1.0000
  Ce  Ce25      1.0  0.94511  0.27754  0.46198  1.0000
  Ce  Ce26      1.0  0.83384  0.05557  0.53843  1.0000
  Ce  Ce27      1.0  0.72276  0.16641  0.38598  1.0000
  Ce  Ce28      1.0  0.72247  0.16646  0.61457  1.0000
  Ce  Ce29      1.0  0.94490  0.61064  0.46194  1.0000
  Ce  Ce30      1.0  0.83354  0.38809  0.53847  1.0000
  Ce  Ce31      1.0  0.72275  0.49969  0.38597  1.0000
  Ce  Ce32      1.0  0.72280  0.49944  0.61447  1.0000
  Ce  Ce33      1.0  0.94498  0.94421  0.46193  1.0000
  Ce  Ce34      1.0  0.83372  0.72184  0.53843  1.0000
  Ce  Ce35      1.0  0.72273  0.83302  0.38597  1.0000
  Ce  Ce36      1.0  0.72357  0.83410  0.61440  1.0000
  O   O1        1.0  0.27112  0.26536  0.63496  1.0000
  O   O2        1.0  0.16717  0.05532  0.48101  1.0000
  O   O3        1.0  0.27846  0.27770  0.51950  1.0000
  O   O4        1.0  0.27834  0.27757  0.40527  1.0000
  O   O5        1.0  0.16722  0.05529  0.36728  1.0000
  O   O6        1.0  0.16610  0.05341  0.59467  1.0000
  O   O7        1.0  0.05637  0.16736  0.55799  1.0000
  O   O8        1.0  0.05618  0.16650  0.44248  1.0000
  O   O9        1.0  0.27538  0.61434  0.63383  1.0000
  O   O10       1.0  0.16746  0.38863  0.48114  1.0000
  O   O11       1.0  0.27824  0.61099  0.51940  1.0000
  O   O12       1.0  0.27834  0.61079  0.40526  1.0000
  O   O13       1.0  0.16718  0.38864  0.36724  1.0000
  O   O14       1.0  0.17138  0.38999  0.59589  1.0000
  O   O15       1.0  0.05659  0.49882  0.55811  1.0000
  O   O16       1.0  0.05621  0.49968  0.44250  1.0000
  O   O17       1.0  0.27758  0.94371  0.63330  1.0000
  O   O18       1.0  0.16687  0.72177  0.48105  1.0000
  O   O19       1.0  0.27871  0.94446  0.51930  1.0000
  O   O20       1.0  0.27839  0.94416  0.40527  1.0000
  O   O21       1.0  0.16719  0.72195  0.36726  1.0000
  O   O22       1.0  0.16620  0.72237  0.59485  1.0000
  O   O23       1.0  0.05604  0.83280  0.55747  1.0000
  O   O24       1.0  0.05618  0.83310  0.44246  1.0000
  O   O25       1.0  0.61205  0.27764  0.63313  1.0000
  O   O26       1.0  0.50070  0.05535  0.48098  1.0000
  O   O27       1.0  0.61162  0.27758  0.51941  1.0000
  O   O28       1.0  0.61162  0.27755  0.40526  1.0000
  O   O29       1.0  0.50054  0.05523  0.36727  1.0000
  O   O30       1.0  0.49991  0.05514  0.59520  1.0000
  O   O31       1.0  0.38962  0.16678  0.55800  1.0000
  O   O32       1.0  0.38942  0.16641  0.44248  1.0000
  O   O33       1.0  0.61559  0.61391  0.63222  1.0000
  O   O34       1.0  0.50038  0.38854  0.48110  1.0000
  O   O35       1.0  0.61222  0.61108  0.51931  1.0000
  O   O36       1.0  0.61164  0.61079  0.40527  1.0000
  O   O37       1.0  0.50051  0.38860  0.36725  1.0000
  O   O38       1.0  0.49664  0.38772  0.59599  1.0000
  O   O39       1.0  0.39073  0.50119  0.55772  1.0000
  O   O40       1.0  0.38946  0.49971  0.44247  1.0000
  O   O41       1.0  0.61217  0.94552  0.63320  1.0000
  O   O42       1.0  0.50045  0.72178  0.48106  1.0000
  O   O43       1.0  0.61171  0.94428  0.51936  1.0000
  O   O44       1.0  0.61156  0.94398  0.40528  1.0000
  O   O45       1.0  0.50054  0.72191  0.36724  1.0000
  O   O46       1.0  0.49886  0.72161  0.59563  1.0000
  O   O47       1.0  0.38937  0.83317  0.55793  1.0000
  O   O48       1.0  0.38929  0.83290  0.44250  1.0000
  O   O49       1.0  0.94605  0.27851  0.63333  1.0000
  O   O50       1.0  0.83390  0.05540  0.48099  1.0000
  O   O51       1.0  0.94487  0.27750  0.51942  1.0000
  O   O52       1.0  0.94506  0.27758  0.40527  1.0000
  O   O53       1.0  0.83382  0.05530  0.36729  1.0000
  O   O54       1.0  0.83395  0.05558  0.59511  1.0000
  O   O55       1.0  0.72243  0.16628  0.55797  1.0000
  O   O56       1.0  0.72275  0.16633  0.44244  1.0000
  O   O57       1.0  0.94434  0.61029  0.63320  1.0000
  O   O58       1.0  0.83376  0.38829  0.48100  1.0000
  O   O59       1.0  0.94414  0.60957  0.51951  1.0000
  O   O60       1.0  0.94501  0.61074  0.40531  1.0000
  O   O61       1.0  0.83384  0.38866  0.36727  1.0000
  O   O62       1.0  0.83387  0.38856  0.59508  1.0000
  O   O63       1.0  0.72090  0.49869  0.55826  1.0000
  O   O64       1.0  0.72272  0.49969  0.44251  1.0000
  O   O65       1.0  0.94437  0.94377  0.63320  1.0000
  O   O66       1.0  0.83437  0.72205  0.48103  1.0000
  O   O67       1.0  0.94454  0.94441  0.51941  1.0000
  O   O68       1.0  0.94498  0.94421  0.40528  1.0000
  O   O69       1.0  0.83390  0.72192  0.36729  1.0000
  O   O70       1.0  0.83581  0.72278  0.59481  1.0000
  O   O71       1.0  0.72195  0.83276  0.55807  1.0000
  O   O72       1.0  0.72279  0.83296  0.44251  1.0000
  O   O73       1.0  0.35601  0.46726  0.67812  1.0000
  H   H1        1.0  0.29490  0.49980  0.68259  1.0000
  H   H2        1.0  0.30197  0.37109  0.67356  1.0000
data_image29
_chemical_formula_structural       Cl32Na32O3H6
_chemical_formula_sum              "Cl32 Na32 O3 H6"
_cell_length_a       11.1665
_cell_length_b       11.3631
_cell_length_c       23.8824
_cell_angle_alpha    90.0965
_cell_angle_beta     90.2564
_cell_angle_gamma    89.9957

_space_group_name_H-M_alt    "P 1"
_space_group_IT_number       1

loop_
  _space_group_symop_operation_xyz
  'x, y, z'

loop_
  _atom_site_type_symbol
  _atom_site_label
  _atom_site_symmetry_multiplicity
  _atom_site_fract_x
  _atom_site_fract_y
  _atom_site_fract_z
  _atom_site_occupancy
  Cl  Cl1       1.0  0.65541  0.87953  0.18548  1.0000
  Cl  Cl2       1.0  0.15541  0.37953  0.18548  1.0000
  Cl  Cl3       1.0  0.40541  0.37953  0.06502  1.0000
  Cl  Cl4       1.0  0.15541  0.62953  0.06502  1.0000
  Cl  Cl5       1.0  0.90541  0.37953  0.06502  1.0000
  Cl  Cl6       1.0  0.65541  0.37953  0.18548  1.0000
  Cl  Cl7       1.0  0.90541  0.62953  0.18548  1.0000
  Cl  Cl8       1.0  0.65846  0.12707  0.30354  1.0000
  Cl  Cl9       1.0  0.40909  0.63163  0.42519  1.0000
  Cl  Cl10      1.0  0.15866  0.37620  0.42452  1.0000
  Cl  Cl11      1.0  0.40921  0.37861  0.30603  1.0000
  Cl  Cl12      1.0  0.15908  0.62851  0.30388  1.0000
  Cl  Cl13      1.0  0.90798  0.87814  0.30391  1.0000
  Cl  Cl14      1.0  0.66075  0.87753  0.42726  1.0000
  Cl  Cl15      1.0  0.91021  0.12666  0.42479  1.0000
  Cl  Cl16      1.0  0.65541  0.12953  0.06502  1.0000
  Cl  Cl17      1.0  0.40541  0.62953  0.18548  1.0000
  Cl  Cl18      1.0  0.65541  0.62953  0.06502  1.0000
  Cl  Cl19      1.0  0.91348  0.62750  0.42466  1.0000
  Cl  Cl20      1.0  0.66598  0.37330  0.42286  1.0000
  Cl  Cl21      1.0  0.40541  0.12953  0.18548  1.0000
  Cl  Cl22      1.0  0.15541  0.87953  0.18548  1.0000
  Cl  Cl23      1.0  0.40541  0.87953  0.06502  1.0000
  Cl  Cl24      1.0  0.15541  0.12953  0.06502  1.0000
  Cl  Cl25      1.0  0.90541  0.12953  0.18548  1.0000
  Cl  Cl26      1.0  0.90541  0.87953  0.06502  1.0000
  Cl  Cl27      1.0  0.41056  0.12359  0.42444  1.0000
  Cl  Cl28      1.0  0.16020  0.87766  0.42505  1.0000
  Cl  Cl29      1.0  0.40878  0.87800  0.30340  1.0000
  Cl  Cl30      1.0  0.15814  0.12786  0.30354  1.0000
  Cl  Cl31      1.0  0.90875  0.37822  0.30323  1.0000
  Cl  Cl32      1.0  0.65911  0.62817  0.30458  1.0000
  Na  Na1       1.0  0.90541  0.87953  0.18548  1.0000
  Na  Na2       1.0  0.40541  0.12953  0.06502  1.0000
  Na  Na3       1.0  0.15541  0.12953  0.18548  1.0000
  Na  Na4       1.0  0.40541  0.87953  0.18548  1.0000
  Na  Na5       1.0  0.15851  0.87805  0.30490  1.0000
  Na  Na6       1.0  0.40823  0.12966  0.30522  1.0000
  Na  Na7       1.0  0.16060  0.12734  0.41984  1.0000
  Na  Na8       1.0  0.40919  0.87931  0.41904  1.0000
  Na  Na9       1.0  0.15541  0.37953  0.06502  1.0000
  Na  Na10      1.0  0.40541  0.62953  0.06502  1.0000
  Na  Na11      1.0  0.15541  0.62953  0.18548  1.0000
  Na  Na12      1.0  0.91423  0.37668  0.41944  1.0000
  Na  Na13      1.0  0.66714  0.62448  0.42140  1.0000
  Na  Na14      1.0  0.65794  0.37765  0.30394  1.0000
  Na  Na15      1.0  0.40541  0.37953  0.18548  1.0000
  Na  Na16      1.0  0.90942  0.62804  0.30474  1.0000
  Na  Na17      1.0  0.40915  0.62709  0.30499  1.0000
  Na  Na18      1.0  0.65831  0.87745  0.30500  1.0000
  Na  Na19      1.0  0.90843  0.12836  0.30479  1.0000
  Na  Na20      1.0  0.66004  0.12484  0.41970  1.0000
  Na  Na21      1.0  0.91157  0.87747  0.42025  1.0000
  Na  Na22      1.0  0.65541  0.12953  0.18548  1.0000
  Na  Na23      1.0  0.16006  0.37832  0.30526  1.0000
  Na  Na24      1.0  0.90541  0.12953  0.06502  1.0000
  Na  Na25      1.0  0.40872  0.37578  0.43014  1.0000
  Na  Na26      1.0  0.65541  0.37953  0.06502  1.0000
  Na  Na27      1.0  0.90541  0.62953  0.06502  1.0000
  Na  Na28      1.0  0.65541  0.62953  0.18548  1.0000
  Na  Na29      1.0  0.90541  0.37953  0.18548  1.0000
  Na  Na30      1.0  0.16076  0.62619  0.42097  1.0000
  Na  Na31      1.0  0.65541  0.87953  0.06502  1.0000
  Na  Na32      1.0  0.15541  0.87953  0.06502  1.0000
  O   O1        1.0  0.41909  0.37865  0.52824  1.0000
  O   O2        1.0  0.65768  0.39652  0.55853  1.0000
  O   O3        1.0  0.61452  0.63606  0.52116  1.0000
  H   H1        1.0  0.36900  0.32761  0.55087  1.0000
  H   H2        1.0  0.50037  0.37703  0.54554  1.0000
  H   H3        1.0  0.68068  0.37629  0.52000  1.0000
  H   H4        1.0  0.65959  0.48292  0.55825  1.0000
  H   H5        1.0  0.63056  0.71878  0.52929  1.0000
  H   H6        1.0  0.52960  0.63282  0.51001  1.0000
data_image30
_chemical_formula_structural       Cl32Na32O12H24
_chemical_formula_sum              "Cl32 Na32 O12 H24"
_cell_length_a       16.0055
_cell_length_b       8.00277
_cell_length_c       26.3176
_cell_angle_alpha    90
_cell_angle_beta     90
_cell_angle_gamma    90

_space_group_name_H-M_alt    "P 1"
_space_group_IT_number       1

loop_
  _space_group_symop_operation_xyz
  'x, y, z'

loop_
  _atom_site_type_symbol
  _atom_site_label
  _atom_site_symmetry_multiplicity
  _atom_site_fract_x
  _atom_site_fract_y
  _atom_site_fract_z
  _atom_site_occupancy
  Cl  Cl1       1.0  0.08045  0.34279  0.01155  1.0000
  Cl  Cl2       1.0  0.70545  0.09279  0.11906  1.0000
  Cl  Cl3       1.0  0.83045  0.84279  0.01155  1.0000
  Cl  Cl4       1.0  0.95545  0.09279  0.11906  1.0000
  Cl  Cl5       1.0  0.07943  0.34544  0.22670  1.0000
  Cl  Cl6       1.0  0.20963  0.58604  0.33276  1.0000
  Cl  Cl7       1.0  0.33111  0.34333  0.22621  1.0000
  Cl  Cl8       1.0  0.45857  0.59722  0.33221  1.0000
  Cl  Cl9       1.0  0.58031  0.34256  0.22758  1.0000
  Cl  Cl10      1.0  0.58045  0.84279  0.01155  1.0000
  Cl  Cl11      1.0  0.70149  0.59544  0.33272  1.0000
  Cl  Cl12      1.0  0.95289  0.59553  0.33710  1.0000
  Cl  Cl13      1.0  0.08027  0.84260  0.22758  1.0000
  Cl  Cl14      1.0  0.32950  0.84331  0.22621  1.0000
  Cl  Cl15      1.0  0.45073  0.08607  0.33276  1.0000
  Cl  Cl16      1.0  0.58114  0.84544  0.22671  1.0000
  Cl  Cl17      1.0  0.70736  0.09549  0.33710  1.0000
  Cl  Cl18      1.0  0.83023  0.84472  0.22695  1.0000
  Cl  Cl19      1.0  0.95881  0.09539  0.33275  1.0000
  Cl  Cl20      1.0  0.83034  0.34472  0.22696  1.0000
  Cl  Cl21      1.0  0.45545  0.09279  0.11906  1.0000
  Cl  Cl22      1.0  0.20177  0.09726  0.33218  1.0000
  Cl  Cl23      1.0  0.33045  0.84279  0.01155  1.0000
  Cl  Cl24      1.0  0.33045  0.34279  0.01155  1.0000
  Cl  Cl25      1.0  0.20545  0.59279  0.11906  1.0000
  Cl  Cl26      1.0  0.45545  0.59279  0.11906  1.0000
  Cl  Cl27      1.0  0.83045  0.34279  0.01155  1.0000
  Cl  Cl28      1.0  0.20545  0.09279  0.11906  1.0000
  Cl  Cl29      1.0  0.08045  0.84279  0.01155  1.0000
  Cl  Cl30      1.0  0.95545  0.59279  0.11906  1.0000
  Cl  Cl31      1.0  0.70545  0.59279  0.11906  1.0000
  Cl  Cl32      1.0  0.58045  0.34279  0.01155  1.0000
  Na  Na1       1.0  0.82941  0.85004  0.33341  1.0000
  Na  Na2       1.0  0.95671  0.09406  0.22580  1.0000
  Na  Na3       1.0  0.57911  0.85351  0.33607  1.0000
  Na  Na4       1.0  0.45545  0.09279  0.01155  1.0000
  Na  Na5       1.0  0.08045  0.34279  0.11906  1.0000
  Na  Na6       1.0  0.33045  0.84279  0.11906  1.0000
  Na  Na7       1.0  0.08045  0.84279  0.11906  1.0000
  Na  Na8       1.0  0.20545  0.09279  0.01155  1.0000
  Na  Na9       1.0  0.70545  0.09279  0.01155  1.0000
  Na  Na10      1.0  0.58045  0.84279  0.11906  1.0000
  Na  Na11      1.0  0.95545  0.09279  0.01155  1.0000
  Na  Na12      1.0  0.83045  0.84279  0.11906  1.0000
  Na  Na13      1.0  0.83045  0.34279  0.11906  1.0000
  Na  Na14      1.0  0.95545  0.59279  0.01155  1.0000
  Na  Na15      1.0  0.20611  0.59232  0.22663  1.0000
  Na  Na16      1.0  0.08117  0.35358  0.33603  1.0000
  Na  Na17      1.0  0.45554  0.59503  0.22580  1.0000
  Na  Na18      1.0  0.70497  0.09511  0.22724  1.0000
  Na  Na19      1.0  0.33463  0.34526  0.33506  1.0000
  Na  Na20      1.0  0.58045  0.34279  0.11906  1.0000
  Na  Na21      1.0  0.20545  0.59279  0.01155  1.0000
  Na  Na22      1.0  0.70545  0.59279  0.01155  1.0000
  Na  Na23      1.0  0.70380  0.59402  0.22577  1.0000
  Na  Na24      1.0  0.57609  0.33383  0.33745  1.0000
  Na  Na25      1.0  0.95560  0.59515  0.22724  1.0000
  Na  Na26      1.0  0.32575  0.84530  0.33509  1.0000
  Na  Na27      1.0  0.45448  0.09231  0.22664  1.0000
  Na  Na28      1.0  0.83087  0.35002  0.33345  1.0000
  Na  Na29      1.0  0.33045  0.34279  0.11906  1.0000
  Na  Na30      1.0  0.45545  0.59279  0.01155  1.0000
  Na  Na31      1.0  0.20505  0.09503  0.22578  1.0000
  Na  Na32      1.0  0.08428  0.83378  0.33743  1.0000
  O   O1        1.0  0.43280  0.67517  0.44736  1.0000
  O   O2        1.0  0.22698  0.17535  0.44735  1.0000
  O   O3        1.0  0.08370  0.38230  0.43126  1.0000
  O   O4        1.0  0.37645  0.33967  0.42864  1.0000
  O   O5        1.0  0.10259  0.74152  0.42885  1.0000
  O   O6        1.0  0.55739  0.24187  0.42888  1.0000
  O   O7        1.0  0.86716  0.82272  0.42676  1.0000
  O   O8        1.0  0.71810  0.64752  0.44940  1.0000
  O   O9        1.0  0.94133  0.14741  0.44939  1.0000
  O   O10       1.0  0.79243  0.32292  0.42677  1.0000
  O   O11       1.0  0.28339  0.83970  0.42866  1.0000
  O   O12       1.0  0.57610  0.88255  0.43130  1.0000
  H   H1        1.0  0.70810  0.63617  0.41233  1.0000
  H   H2        1.0  0.44278  0.65402  0.41069  1.0000
  H   H3        1.0  0.57894  0.28944  0.46037  1.0000
  H   H4        1.0  0.76551  0.42413  0.44089  1.0000
  H   H5        1.0  0.37921  0.73795  0.44759  1.0000
  H   H6        1.0  0.13367  0.32213  0.44401  1.0000
  H   H7        1.0  0.03566  0.32103  0.44553  1.0000
  H   H8        1.0  0.77044  0.71324  0.45060  1.0000
  H   H9        1.0  0.56616  0.11922  0.43158  1.0000
  H   H10       1.0  0.39047  0.45061  0.44287  1.0000
  H   H11       1.0  0.08100  0.78914  0.46032  1.0000
  H   H12       1.0  0.88903  0.21325  0.45055  1.0000
  H   H13       1.0  0.28057  0.23811  0.44762  1.0000
  H   H14       1.0  0.62408  0.82108  0.44559  1.0000
  H   H15       1.0  0.26936  0.95062  0.44289  1.0000
  H   H16       1.0  0.74729  0.24899  0.41518  1.0000
  H   H17       1.0  0.43049  0.28074  0.42735  1.0000
  H   H18       1.0  0.09375  0.61889  0.43155  1.0000
  H   H19       1.0  0.91236  0.74875  0.41528  1.0000
  H   H20       1.0  0.95150  0.13614  0.41234  1.0000
  H   H21       1.0  0.21713  0.15414  0.41067  1.0000
  H   H22       1.0  0.52609  0.82245  0.44400  1.0000
  H   H23       1.0  0.22935  0.78075  0.42733  1.0000
  H   H24       1.0  0.89402  0.92400  0.44089  1.0000
data_image31
_chemical_formula_structural       Cl32Na32OH2
_chemical_formula_sum              "Cl32 Na32 O1 H2"
_cell_length_a       11.3176
_cell_length_b       11.3176
_cell_length_c       23.4882
_cell_angle_alpha    90
_cell_angle_beta     90
_cell_angle_gamma    90

_space_group_name_H-M_alt    "P 1"
_space_group_IT_number       1

loop_
  _space_group_symop_operation_xyz
  'x, y, z'

loop_
  _atom_site_type_symbol
  _atom_site_label
  _atom_site_symmetry_multiplicity
  _atom_site_fract_x
  _atom_site_fract_y
  _atom_site_fract_z
  _atom_site_occupancy
  Cl  Cl1       1.0  0.00000  0.50000  0.12046  1.0000
  Cl  Cl2       1.0  0.24994  0.49954  0.24219  1.0000
  Cl  Cl3       1.0  0.99627  0.49915  0.36236  1.0000
  Cl  Cl4       1.0  0.25005  0.75295  0.36246  1.0000
  Cl  Cl5       1.0  0.49956  0.24996  0.24028  1.0000
  Cl  Cl6       1.0  0.74963  0.99993  0.24054  1.0000
  Cl  Cl7       1.0  0.75000  0.25000  0.12046  1.0000
  Cl  Cl8       1.0  0.75000  0.75000  0.12046  1.0000
  Cl  Cl9       1.0  0.00000  0.75000  0.00000  1.0000
  Cl  Cl10      1.0  0.25000  0.50000  0.00000  1.0000
  Cl  Cl11      1.0  0.74944  0.24904  0.36318  1.0000
  Cl  Cl12      1.0  0.25000  0.75000  0.12046  1.0000
  Cl  Cl13      1.0  0.50000  0.50000  0.12046  1.0000
  Cl  Cl14      1.0  0.75000  0.50000  0.00000  1.0000
  Cl  Cl15      1.0  0.50000  0.75000  0.00000  1.0000
  Cl  Cl16      1.0  0.99969  0.74987  0.24066  1.0000
  Cl  Cl17      1.0  0.50000  0.00000  0.12046  1.0000
  Cl  Cl18      1.0  0.24993  0.00033  0.24033  1.0000
  Cl  Cl19      1.0  0.99914  0.99983  0.36329  1.0000
  Cl  Cl20      1.0  0.25012  0.24463  0.36434  1.0000
  Cl  Cl21      1.0  0.75000  0.00000  0.00000  1.0000
  Cl  Cl22      1.0  0.50000  0.25000  0.00000  1.0000
  Cl  Cl23      1.0  0.50022  0.99971  0.36321  1.0000
  Cl  Cl24      1.0  0.74936  0.75008  0.36331  1.0000
  Cl  Cl25      1.0  0.00000  0.25000  0.00000  1.0000
  Cl  Cl26      1.0  0.25000  0.00000  0.00000  1.0000
  Cl  Cl27      1.0  0.00000  0.00000  0.12046  1.0000
  Cl  Cl28      1.0  0.25000  0.25000  0.12046  1.0000
  Cl  Cl29      1.0  0.50391  0.49889  0.36459  1.0000
  Cl  Cl30      1.0  0.74908  0.49965  0.24035  1.0000
  Cl  Cl31      1.0  0.49986  0.74944  0.24064  1.0000
  Cl  Cl32      1.0  0.00007  0.24966  0.24059  1.0000
  Na  Na1       1.0  0.75000  0.75000  0.00000  1.0000
  Na  Na2       1.0  0.50000  0.75000  0.12046  1.0000
  Na  Na3       1.0  0.75000  0.50000  0.12046  1.0000
  Na  Na4       1.0  0.49913  0.49993  0.24176  1.0000
  Na  Na5       1.0  0.74994  0.74978  0.24163  1.0000
  Na  Na6       1.0  0.49984  0.75044  0.35897  1.0000
  Na  Na7       1.0  0.75079  0.49986  0.35883  1.0000
  Na  Na8       1.0  0.50000  0.50000  0.00000  1.0000
  Na  Na9       1.0  0.74994  0.99932  0.35916  1.0000
  Na  Na10      1.0  0.00000  0.00000  0.00000  1.0000
  Na  Na11      1.0  0.75011  0.24982  0.24141  1.0000
  Na  Na12      1.0  0.25000  0.25000  0.00000  1.0000
  Na  Na13      1.0  0.00000  0.25000  0.12046  1.0000
  Na  Na14      1.0  0.25000  0.00000  0.12046  1.0000
  Na  Na15      1.0  0.99980  0.99959  0.24162  1.0000
  Na  Na16      1.0  0.24958  0.25032  0.24162  1.0000
  Na  Na17      1.0  0.99859  0.24944  0.35888  1.0000
  Na  Na18      1.0  0.24937  0.99810  0.35879  1.0000
  Na  Na19      1.0  0.00000  0.50000  0.00000  1.0000
  Na  Na20      1.0  0.50165  0.24754  0.35736  1.0000
  Na  Na21      1.0  0.25000  0.75000  0.00000  1.0000
  Na  Na22      1.0  0.25000  0.50000  0.12046  1.0000
  Na  Na23      1.0  0.99970  0.49993  0.24152  1.0000
  Na  Na24      1.0  0.24962  0.74977  0.24152  1.0000
  Na  Na25      1.0  0.99939  0.74978  0.35962  1.0000
  Na  Na26      1.0  0.24246  0.50703  0.36328  1.0000
  Na  Na27      1.0  0.50000  0.00000  0.00000  1.0000
  Na  Na28      1.0  0.50000  0.25000  0.12046  1.0000
  Na  Na29      1.0  0.75000  0.00000  0.12046  1.0000
  Na  Na30      1.0  0.49976  0.99939  0.24143  1.0000
  Na  Na31      1.0  0.00000  0.75000  0.12046  1.0000
  Na  Na32      1.0  0.75000  0.25000  0.00000  1.0000
  O   O1        1.0  0.29049  0.45435  0.46002  1.0000
  H   H1        1.0  0.37547  0.46662  0.45510  1.0000
  H   H2        1.0  0.27916  0.36978  0.45291  1.0000
data_image32
_chemical_formula_structural       Cl32Na32O8H16
_chemical_formula_sum              "Cl32 Na32 O8 H16"
_cell_length_a       11.3176
_cell_length_b       11.3176
_cell_length_c       23.4882
_cell_angle_alpha    90
_cell_angle_beta     90
_cell_angle_gamma    90

_space_group_name_H-M_alt    "P 1"
_space_group_IT_number       1

loop_
  _space_group_symop_operation_xyz
  'x, y, z'

loop_
  _atom_site_type_symbol
  _atom_site_label
  _atom_site_symmetry_multiplicity
  _atom_site_fract_x
  _atom_site_fract_y
  _atom_site_fract_z
  _atom_site_occupancy
  Cl  Cl1       1.0  0.78534  0.74116  0.12046  1.0000
  Cl  Cl2       1.0  0.28683  0.49176  0.24094  1.0000
  Cl  Cl3       1.0  0.03838  0.48988  0.36192  1.0000
  Cl  Cl4       1.0  0.28733  0.73928  0.36224  1.0000
  Cl  Cl5       1.0  0.53684  0.74213  0.24107  1.0000
  Cl  Cl6       1.0  0.53709  0.49080  0.36207  1.0000
  Cl  Cl7       1.0  0.53534  0.49116  0.12046  1.0000
  Cl  Cl8       1.0  0.78810  0.74177  0.36250  1.0000
  Cl  Cl9       1.0  0.03534  0.74116  0.00000  1.0000
  Cl  Cl10      1.0  0.28534  0.49116  0.00000  1.0000
  Cl  Cl11      1.0  0.03534  0.49116  0.12046  1.0000
  Cl  Cl12      1.0  0.28534  0.74116  0.12046  1.0000
  Cl  Cl13      1.0  0.78534  0.24116  0.12046  1.0000
  Cl  Cl14      1.0  0.53534  0.99116  0.12046  1.0000
  Cl  Cl15      1.0  0.78534  0.99116  0.00000  1.0000
  Cl  Cl16      1.0  0.03682  0.74192  0.24095  1.0000
  Cl  Cl17      1.0  0.53534  0.24116  0.00000  1.0000
  Cl  Cl18      1.0  0.28722  0.99139  0.24076  1.0000
  Cl  Cl19      1.0  0.03911  0.99115  0.36236  1.0000
  Cl  Cl20      1.0  0.28871  0.23912  0.36063  1.0000
  Cl  Cl21      1.0  0.78875  0.24208  0.36232  1.0000
  Cl  Cl22      1.0  0.53802  0.99150  0.36267  1.0000
  Cl  Cl23      1.0  0.78707  0.99236  0.24091  1.0000
  Cl  Cl24      1.0  0.03534  0.24116  0.00000  1.0000
  Cl  Cl25      1.0  0.28534  0.99116  0.00000  1.0000
  Cl  Cl26      1.0  0.03534  0.99116  0.12046  1.0000
  Cl  Cl27      1.0  0.28534  0.24116  0.12046  1.0000
  Cl  Cl28      1.0  0.53732  0.24206  0.24064  1.0000
  Cl  Cl29      1.0  0.53534  0.74116  0.00000  1.0000
  Cl  Cl30      1.0  0.78534  0.49116  0.00000  1.0000
  Cl  Cl31      1.0  0.03695  0.24191  0.24071  1.0000
  Cl  Cl32      1.0  0.78678  0.49238  0.24088  1.0000
  Na  Na1       1.0  0.78685  0.74254  0.24145  1.0000
  Na  Na2       1.0  0.53682  0.74681  0.36132  1.0000
  Na  Na3       1.0  0.78580  0.49701  0.36071  1.0000
  Na  Na4       1.0  0.53659  0.49233  0.24123  1.0000
  Na  Na5       1.0  0.03534  0.99116  0.00000  1.0000
  Na  Na6       1.0  0.53534  0.74116  0.12046  1.0000
  Na  Na7       1.0  0.28534  0.24116  0.00000  1.0000
  Na  Na8       1.0  0.03534  0.24116  0.12046  1.0000
  Na  Na9       1.0  0.28534  0.99116  0.12046  1.0000
  Na  Na10      1.0  0.03721  0.99206  0.24146  1.0000
  Na  Na11      1.0  0.28701  0.24180  0.24064  1.0000
  Na  Na12      1.0  0.03663  0.24449  0.36079  1.0000
  Na  Na13      1.0  0.28764  0.99525  0.36081  1.0000
  Na  Na14      1.0  0.03534  0.49116  0.00000  1.0000
  Na  Na15      1.0  0.28534  0.74116  0.00000  1.0000
  Na  Na16      1.0  0.03534  0.74116  0.12046  1.0000
  Na  Na17      1.0  0.78534  0.49116  0.12046  1.0000
  Na  Na18      1.0  0.28534  0.49116  0.12046  1.0000
  Na  Na19      1.0  0.03694  0.49209  0.24118  1.0000
  Na  Na20      1.0  0.78673  0.99693  0.36078  1.0000
  Na  Na21      1.0  0.28677  0.74163  0.24121  1.0000
  Na  Na22      1.0  0.78534  0.74116  0.00000  1.0000
  Na  Na23      1.0  0.53534  0.49116  0.00000  1.0000
  Na  Na24      1.0  0.53753  0.24615  0.36041  1.0000
  Na  Na25      1.0  0.78720  0.24252  0.24130  1.0000
  Na  Na26      1.0  0.53709  0.99219  0.24144  1.0000
  Na  Na27      1.0  0.53534  0.24116  0.12046  1.0000
  Na  Na28      1.0  0.78534  0.99116  0.12046  1.0000
  Na  Na29      1.0  0.53534  0.99116  0.00000  1.0000
  Na  Na30      1.0  0.28688  0.49477  0.36159  1.0000
  Na  Na31      1.0  0.03617  0.74657  0.36111  1.0000
  Na  Na32      1.0  0.78534  0.24116  0.00000  1.0000
  O   O1        1.0  0.29192  0.42313  0.46136  1.0000
  O   O2        1.0  0.54756  0.19161  0.46087  1.0000
  O   O3        1.0  0.80007  0.94169  0.46103  1.0000
  O   O4        1.0  0.79730  0.43971  0.46099  1.0000
  O   O5        1.0  0.04138  0.68070  0.46112  1.0000
  O   O6        1.0  0.29089  0.93227  0.46100  1.0000
  O   O7        1.0  0.54583  0.68544  0.46114  1.0000
  O   O8        1.0  0.05054  0.19021  0.46136  1.0000
  H   H1        1.0  0.55644  0.60470  0.44642  1.0000
  H   H2        1.0  0.62089  0.70476  0.47927  1.0000
  H   H3        1.0  0.81637  0.86072  0.44805  1.0000
  H   H4        1.0  0.36360  0.44026  0.48287  1.0000
  H   H5        1.0  0.11242  0.70103  0.48247  1.0000
  H   H6        1.0  0.81708  0.35995  0.44737  1.0000
  H   H7        1.0  0.86816  0.46775  0.48038  1.0000
  H   H8        1.0  0.07340  0.11024  0.44939  1.0000
  H   H9        1.0  0.05749  0.60231  0.44458  1.0000
  H   H10       1.0  0.56159  0.11011  0.44800  1.0000
  H   H11       1.0  0.30111  0.85246  0.44495  1.0000
  H   H12       1.0  0.87377  0.96874  0.47818  1.0000
  H   H13       1.0  0.11933  0.22178  0.48123  1.0000
  H   H14       1.0  0.30695  0.34607  0.44314  1.0000
  H   H15       1.0  0.62154  0.21600  0.47863  1.0000
  H   H16       1.0  0.36457  0.94835  0.48108  1.0000
data_image33
_chemical_formula_structural       Mg32O42H20
_chemical_formula_sum              "Mg32 O42 H20"
_cell_length_a       11.9077
_cell_length_b       5.95384
_cell_length_c       23.42
_cell_angle_alpha    90
_cell_angle_beta     90
_cell_angle_gamma    90

_space_group_name_H-M_alt    "P 1"
_space_group_IT_number       1

loop_
  _space_group_symop_operation_xyz
  'x, y, z'

loop_
  _atom_site_type_symbol
  _atom_site_label
  _atom_site_symmetry_multiplicity
  _atom_site_fract_x
  _atom_site_fract_y
  _atom_site_fract_z
  _atom_site_occupancy
  Mg  Mg1       1.0  0.56066  0.08927  0.18843  1.0000
  Mg  Mg2       1.0  0.69105  0.35112  0.28508  1.0000
  Mg  Mg3       1.0  0.80993  0.08901  0.19162  1.0000
  Mg  Mg4       1.0  0.93075  0.32760  0.28413  1.0000
  Mg  Mg5       1.0  0.06065  0.58927  0.18843  1.0000
  Mg  Mg6       1.0  0.56065  0.58846  0.19223  1.0000
  Mg  Mg7       1.0  0.30993  0.58900  0.19162  1.0000
  Mg  Mg8       1.0  0.43075  0.82759  0.28412  1.0000
  Mg  Mg9       1.0  0.69049  0.82757  0.28413  1.0000
  Mg  Mg10      1.0  0.81137  0.58902  0.19162  1.0000
  Mg  Mg11      1.0  0.93021  0.85113  0.28509  1.0000
  Mg  Mg12      1.0  0.43022  0.35113  0.28509  1.0000
  Mg  Mg13      1.0  0.19105  0.85111  0.28508  1.0000
  Mg  Mg14      1.0  0.31137  0.08902  0.19162  1.0000
  Mg  Mg15      1.0  0.06063  0.08903  0.01006  1.0000
  Mg  Mg16      1.0  0.06063  0.58903  0.01006  1.0000
  Mg  Mg17      1.0  0.56063  0.08903  0.01006  1.0000
  Mg  Mg18      1.0  0.56063  0.58903  0.01006  1.0000
  Mg  Mg19      1.0  0.31063  0.58903  0.01006  1.0000
  Mg  Mg20      1.0  0.68563  0.83903  0.09994  1.0000
  Mg  Mg21      1.0  0.81063  0.08903  0.01006  1.0000
  Mg  Mg22      1.0  0.43563  0.33903  0.09994  1.0000
  Mg  Mg23      1.0  0.68563  0.33903  0.09994  1.0000
  Mg  Mg24      1.0  0.93563  0.83903  0.09994  1.0000
  Mg  Mg25      1.0  0.81063  0.58903  0.01006  1.0000
  Mg  Mg26      1.0  0.93563  0.33903  0.09994  1.0000
  Mg  Mg27      1.0  0.18563  0.33903  0.09994  1.0000
  Mg  Mg28      1.0  0.18563  0.83903  0.09994  1.0000
  Mg  Mg29      1.0  0.06065  0.08845  0.19223  1.0000
  Mg  Mg30      1.0  0.19050  0.32756  0.28413  1.0000
  Mg  Mg31      1.0  0.31063  0.08903  0.01006  1.0000
  Mg  Mg32      1.0  0.43563  0.83903  0.09994  1.0000
  O   O1        1.0  0.69341  0.86555  0.37880  1.0000
  O   O2        1.0  0.93563  0.33903  0.01006  1.0000
  O   O3        1.0  0.42775  0.86544  0.37878  1.0000
  O   O4        1.0  0.56063  0.08903  0.09994  1.0000
  O   O5        1.0  0.92103  0.81659  0.37951  1.0000
  O   O6        1.0  0.06062  0.08910  0.28187  1.0000
  O   O7        1.0  0.19343  0.36548  0.37880  1.0000
  O   O8        1.0  0.81063  0.08903  0.09994  1.0000
  O   O9        1.0  0.43563  0.33903  0.01006  1.0000
  O   O10       1.0  0.42104  0.31657  0.37951  1.0000
  O   O11       1.0  0.06063  0.08903  0.09994  1.0000
  O   O12       1.0  0.70015  0.31668  0.37951  1.0000
  O   O13       1.0  0.18563  0.33903  0.01006  1.0000
  O   O14       1.0  0.92777  0.36545  0.37878  1.0000
  O   O15       1.0  0.68563  0.33903  0.01006  1.0000
  O   O16       1.0  0.31063  0.08903  0.09994  1.0000
  O   O17       1.0  0.20014  0.81660  0.37950  1.0000
  O   O18       1.0  0.18563  0.83903  0.01006  1.0000
  O   O19       1.0  0.43706  0.33694  0.19150  1.0000
  O   O20       1.0  0.31405  0.08927  0.28015  1.0000
  O   O21       1.0  0.81063  0.58903  0.09994  1.0000
  O   O22       1.0  0.93563  0.83903  0.01006  1.0000
  O   O23       1.0  0.68420  0.33694  0.19149  1.0000
  O   O24       1.0  0.56061  0.08946  0.28836  1.0000
  O   O25       1.0  0.56063  0.58903  0.09994  1.0000
  O   O26       1.0  0.80720  0.08928  0.28016  1.0000
  O   O27       1.0  0.68563  0.83903  0.01006  1.0000
  O   O28       1.0  0.18420  0.83694  0.19149  1.0000
  O   O29       1.0  0.06061  0.58945  0.28836  1.0000
  O   O30       1.0  0.31063  0.58903  0.09994  1.0000
  O   O31       1.0  0.43716  0.84110  0.19147  1.0000
  O   O32       1.0  0.30719  0.58927  0.28016  1.0000
  O   O33       1.0  0.43563  0.83903  0.01006  1.0000
  O   O34       1.0  0.68410  0.84110  0.19146  1.0000
  O   O35       1.0  0.56062  0.58911  0.28187  1.0000
  O   O36       1.0  0.06063  0.58903  0.09994  1.0000
  O   O37       1.0  0.93707  0.83694  0.19150  1.0000
  O   O38       1.0  0.81406  0.58928  0.28016  1.0000
  O   O39       1.0  0.18410  0.34109  0.19147  1.0000
  O   O40       1.0  0.93717  0.34110  0.19147  1.0000
  O   O41       1.0  0.56057  0.58268  0.43431  1.0000
  O   O42       1.0  0.06058  0.08264  0.43430  1.0000
  H   H1        1.0  0.97236  0.25816  0.40369  1.0000
  H   H2        1.0  0.84579  0.34166  0.38549  1.0000
  H   H3        1.0  0.14882  0.90974  0.40494  1.0000
  H   H4        1.0  0.19155  0.65452  0.38911  1.0000
  H   H5        1.0  0.47235  0.75816  0.40369  1.0000
  H   H6        1.0  0.34577  0.84164  0.38548  1.0000
  H   H7        1.0  0.64881  0.75826  0.40370  1.0000
  H   H8        1.0  0.77538  0.84171  0.38551  1.0000
  H   H9        1.0  0.92961  0.65451  0.38912  1.0000
  H   H10       1.0  0.27540  0.34165  0.38551  1.0000
  H   H11       1.0  0.14882  0.25818  0.40370  1.0000
  H   H12       1.0  0.47235  0.40971  0.40495  1.0000
  H   H13       1.0  0.42963  0.15449  0.38912  1.0000
  H   H14       1.0  0.69155  0.15461  0.38912  1.0000
  H   H15       1.0  0.97234  0.90973  0.40494  1.0000
  H   H16       1.0  0.64883  0.40982  0.40494  1.0000
  H   H17       1.0  0.56056  0.58715  0.47584  1.0000
  H   H18       1.0  0.56061  0.08322  0.33007  1.0000
  H   H19       1.0  0.06059  0.08707  0.47583  1.0000
  H   H20       1.0  0.06061  0.58326  0.33007  1.0000
data_image34
_chemical_formula_structural       Mg24O30H12
_chemical_formula_sum              "Mg24 O30 H12"
_cell_length_a       9.00925
_cell_length_b       6.00616
_cell_length_c       24.235
_cell_angle_alpha    90
_cell_angle_beta     90
_cell_angle_gamma    90

_space_group_name_H-M_alt    "P 1"
_space_group_IT_number       1

loop_
  _space_group_symop_operation_xyz
  'x, y, z'

loop_
  _atom_site_type_symbol
  _atom_site_label
  _atom_site_symmetry_multiplicity
  _atom_site_fract_x
  _atom_site_fract_y
  _atom_site_fract_z
  _atom_site_occupancy
  Mg  Mg1       1.0  0.10233  0.00219  0.56927  1.0000
  Mg  Mg2       1.0  0.26899  0.25219  0.48165  1.0000
  Mg  Mg3       1.0  0.60233  0.25219  0.48165  1.0000
  Mg  Mg4       1.0  0.93831  0.75314  0.65700  1.0000
  Mg  Mg5       1.0  0.43566  0.00219  0.56927  1.0000
  Mg  Mg6       1.0  0.76899  0.00219  0.56927  1.0000
  Mg  Mg7       1.0  0.41509  0.50140  0.74905  1.0000
  Mg  Mg8       1.0  0.60215  0.75176  0.65590  1.0000
  Mg  Mg9       1.0  0.10217  0.50313  0.74670  1.0000
  Mg  Mg10      1.0  0.26642  0.75173  0.65694  1.0000
  Mg  Mg11      1.0  0.78955  0.00132  0.74900  1.0000
  Mg  Mg12      1.0  0.93826  0.25166  0.65693  1.0000
  Mg  Mg13      1.0  0.41705  0.00335  0.74585  1.0000
  Mg  Mg14      1.0  0.93566  0.25219  0.48165  1.0000
  Mg  Mg15      1.0  0.60247  0.25176  0.65590  1.0000
  Mg  Mg16      1.0  0.26638  0.25319  0.65701  1.0000
  Mg  Mg17      1.0  0.76899  0.50219  0.56927  1.0000
  Mg  Mg18      1.0  0.93566  0.75219  0.48165  1.0000
  Mg  Mg19      1.0  0.43566  0.50219  0.56927  1.0000
  Mg  Mg20      1.0  0.60233  0.75219  0.48165  1.0000
  Mg  Mg21      1.0  0.10233  0.50219  0.56927  1.0000
  Mg  Mg22      1.0  0.26899  0.75219  0.48165  1.0000
  Mg  Mg23      1.0  0.10244  0.00313  0.74672  1.0000
  Mg  Mg24      1.0  0.78756  0.50325  0.74583  1.0000
  O   O1        1.0  0.60233  0.75219  0.56927  1.0000
  O   O2        1.0  0.93566  0.75219  0.56927  1.0000
  O   O3        1.0  0.43566  0.50219  0.48165  1.0000
  O   O4        1.0  0.10237  0.00248  0.65523  1.0000
  O   O5        1.0  0.26574  0.25127  0.74211  1.0000
  O   O6        1.0  0.76899  0.50219  0.48165  1.0000
  O   O7        1.0  0.59807  0.26218  0.75012  1.0000
  O   O8        1.0  0.43985  0.00234  0.65840  1.0000
  O   O9        1.0  0.76495  0.00202  0.65874  1.0000
  O   O10       1.0  0.93901  0.25391  0.74145  1.0000
  O   O11       1.0  0.10228  0.50248  0.65523  1.0000
  O   O12       1.0  0.26560  0.75396  0.74146  1.0000
  O   O13       1.0  0.43967  0.50204  0.65875  1.0000
  O   O14       1.0  0.60648  0.76214  0.75013  1.0000
  O   O15       1.0  0.76477  0.50232  0.65840  1.0000
  O   O16       1.0  0.93887  0.75123  0.74209  1.0000
  O   O17       1.0  0.26899  0.75219  0.56927  1.0000
  O   O18       1.0  0.93566  0.25219  0.56927  1.0000
  O   O19       1.0  0.76899  0.00219  0.48165  1.0000
  O   O20       1.0  0.60233  0.25219  0.56927  1.0000
  O   O21       1.0  0.43566  0.00219  0.48165  1.0000
  O   O22       1.0  0.10233  0.50219  0.48165  1.0000
  O   O23       1.0  0.26899  0.25219  0.56927  1.0000
  O   O24       1.0  0.10233  0.00219  0.48165  1.0000
  O   O25       1.0  0.78294  0.06309  0.83351  1.0000
  O   O26       1.0  0.42767  0.99392  0.83490  1.0000
  O   O27       1.0  0.07379  0.00259  0.83852  1.0000
  O   O28       1.0  0.77706  0.49405  0.83489  1.0000
  O   O29       1.0  0.42148  0.56301  0.83356  1.0000
  O   O30       1.0  0.13064  0.50252  0.83851  1.0000
  H   H1        1.0  0.60827  0.22901  0.78975  1.0000
  H   H2        1.0  0.41999  0.82394  0.84157  1.0000
  H   H3        1.0  0.33449  0.05902  0.84775  1.0000
  H   H4        1.0  0.09234  0.84857  0.85027  1.0000
  H   H5        1.0  0.96045  0.02146  0.84123  1.0000
  H   H6        1.0  0.78460  0.32408  0.84156  1.0000
  H   H7        1.0  0.87035  0.55894  0.84769  1.0000
  H   H8        1.0  0.59656  0.72919  0.78977  1.0000
  H   H9        1.0  0.48396  0.48595  0.86019  1.0000
  H   H10       1.0  0.11214  0.34846  0.85024  1.0000
  H   H11       1.0  0.24398  0.52144  0.84124  1.0000
  H   H12       1.0  0.72041  0.98606  0.86013  1.0000
data_image35
_chemical_formula_structural       Mg32O34H4
_chemical_formula_sum              "Mg32 O34 H4"
_cell_length_a       8.424
_cell_length_b       8.424
_cell_length_c       21.318
_cell_angle_alpha    90
_cell_angle_beta     90
_cell_angle_gamma    90

_space_group_name_H-M_alt    "P 1"
_space_group_IT_number       1

loop_
  _space_group_symop_operation_xyz
  'x, y, z'

loop_
  _atom_site_type_symbol
  _atom_site_label
  _atom_site_symmetry_multiplicity
  _atom_site_fract_x
  _atom_site_fract_y
  _atom_site_fract_z
  _atom_site_occupancy
  Mg  Mg1       1.0  0.40690  0.61507  0.28919  1.0000
  Mg  Mg2       1.0  0.40977  0.86474  0.19105  1.0000
  Mg  Mg3       1.0  0.65998  0.11414  0.99232  1.0000
  Mg  Mg4       1.0  0.90998  0.11414  0.09111  1.0000
  Mg  Mg5       1.0  0.90998  0.36414  0.99232  1.0000
  Mg  Mg6       1.0  0.66118  0.11443  0.19187  1.0000
  Mg  Mg7       1.0  0.66020  0.36040  0.29339  1.0000
  Mg  Mg8       1.0  0.15974  0.86425  0.29050  1.0000
  Mg  Mg9       1.0  0.91607  0.11374  0.29654  1.0000
  Mg  Mg10      1.0  0.65998  0.61414  0.99232  1.0000
  Mg  Mg11      1.0  0.65998  0.86414  0.09111  1.0000
  Mg  Mg12      1.0  0.90998  0.61414  0.09111  1.0000
  Mg  Mg13      1.0  0.90998  0.86414  0.99232  1.0000
  Mg  Mg14      1.0  0.66044  0.61344  0.19107  1.0000
  Mg  Mg15      1.0  0.66001  0.86441  0.28996  1.0000
  Mg  Mg16      1.0  0.91303  0.61489  0.28970  1.0000
  Mg  Mg17      1.0  0.91008  0.86562  0.19167  1.0000
  Mg  Mg18      1.0  0.90961  0.36289  0.19204  1.0000
  Mg  Mg19      1.0  0.15948  0.61422  0.19075  1.0000
  Mg  Mg20      1.0  0.15998  0.11414  0.99232  1.0000
  Mg  Mg21      1.0  0.65998  0.36414  0.09111  1.0000
  Mg  Mg22      1.0  0.15989  0.36459  0.28985  1.0000
  Mg  Mg23      1.0  0.40753  0.11367  0.29020  1.0000
  Mg  Mg24      1.0  0.41035  0.36368  0.19143  1.0000
  Mg  Mg25      1.0  0.40998  0.11414  0.09111  1.0000
  Mg  Mg26      1.0  0.15998  0.61414  0.99232  1.0000
  Mg  Mg27      1.0  0.15998  0.36414  0.09111  1.0000
  Mg  Mg28      1.0  0.40998  0.36414  0.99232  1.0000
  Mg  Mg29      1.0  0.15884  0.11429  0.19141  1.0000
  Mg  Mg30      1.0  0.15998  0.86414  0.09111  1.0000
  Mg  Mg31      1.0  0.40998  0.61414  0.09111  1.0000
  Mg  Mg32      1.0  0.40998  0.86414  0.99232  1.0000
  O   O1        1.0  0.15998  0.36414  0.99232  1.0000
  O   O2        1.0  0.66526  0.43605  0.39711  1.0000
  O   O3        1.0  0.65943  0.61745  0.29539  1.0000
  O   O4        1.0  0.40998  0.11414  0.99232  1.0000
  O   O5        1.0  0.90998  0.86414  0.09111  1.0000
  O   O6        1.0  0.91021  0.86263  0.29147  1.0000
  O   O7        1.0  0.65998  0.86414  0.99232  1.0000
  O   O8        1.0  0.65998  0.61414  0.09111  1.0000
  O   O9        1.0  0.40998  0.36414  0.09111  1.0000
  O   O10       1.0  0.15998  0.11414  0.09111  1.0000
  O   O11       1.0  0.65954  0.86374  0.19137  1.0000
  O   O12       1.0  0.90908  0.61442  0.19096  1.0000
  O   O13       1.0  0.90998  0.61414  0.99232  1.0000
  O   O14       1.0  0.15998  0.86414  0.99232  1.0000
  O   O15       1.0  0.65952  0.36429  0.19220  1.0000
  O   O16       1.0  0.15998  0.61414  0.09111  1.0000
  O   O17       1.0  0.40998  0.86414  0.09111  1.0000
  O   O18       1.0  0.40938  0.86336  0.29223  1.0000
  O   O19       1.0  0.41088  0.61427  0.19107  1.0000
  O   O20       1.0  0.16032  0.86401  0.19090  1.0000
  O   O21       1.0  0.16047  0.61466  0.29195  1.0000
  O   O22       1.0  0.16220  0.11418  0.29203  1.0000
  O   O23       1.0  0.65550  0.11184  0.29446  1.0000
  O   O24       1.0  0.16047  0.36449  0.19074  1.0000
  O   O25       1.0  0.90998  0.36414  0.09111  1.0000
  O   O26       1.0  0.90998  0.11414  0.99232  1.0000
  O   O27       1.0  0.65998  0.36414  0.99232  1.0000
  O   O28       1.0  0.65998  0.11414  0.09111  1.0000
  O   O29       1.0  0.40847  0.36530  0.29231  1.0000
  O   O30       1.0  0.40998  0.61414  0.99232  1.0000
  O   O31       1.0  0.90942  0.11411  0.19178  1.0000
  O   O32       1.0  0.41052  0.11412  0.19111  1.0000
  O   O33       1.0  0.91154  0.36670  0.29113  1.0000
  O   O34       1.0  0.84772  0.12456  0.39739  1.0000
  H   H1        1.0  0.66006  0.53657  0.37094  1.0000
  H   H2        1.0  0.56156  0.42557  0.41704  1.0000
  H   H3        1.0  0.84991  0.23514  0.41146  1.0000
  H   H4        1.0  0.74108  0.11547  0.37742  1.0000
data_image36
_chemical_formula_structural       Mg32O35H6
_chemical_formula_sum              "Mg32 O35 H6"
_cell_length_a       8.424
_cell_length_b       8.424
_cell_length_c       21.318
_cell_angle_alpha    90
_cell_angle_beta     90
_cell_angle_gamma    90

_space_group_name_H-M_alt    "P 1"
_space_group_IT_number       1

loop_
  _space_group_symop_operation_xyz
  'x, y, z'

loop_
  _atom_site_type_symbol
  _atom_site_label
  _atom_site_symmetry_multiplicity
  _atom_site_fract_x
  _atom_site_fract_y
  _atom_site_fract_z
  _atom_site_occupancy
  Mg  Mg1       1.0  0.23784  0.51910  0.30721  1.0000
  Mg  Mg2       1.0  0.25004  0.76752  0.20127  1.0000
  Mg  Mg3       1.0  0.50182  0.01893  0.00135  1.0000
  Mg  Mg4       1.0  0.75182  0.01893  0.10014  1.0000
  Mg  Mg5       1.0  0.75182  0.26893  0.00135  1.0000
  Mg  Mg6       1.0  0.50170  0.02111  0.19984  1.0000
  Mg  Mg7       1.0  0.50284  0.25719  0.30728  1.0000
  Mg  Mg8       1.0  0.00108  0.77007  0.30686  1.0000
  Mg  Mg9       1.0  0.75434  0.01889  0.29864  1.0000
  Mg  Mg10      1.0  0.50182  0.51893  0.00135  1.0000
  Mg  Mg11      1.0  0.50182  0.76893  0.10014  1.0000
  Mg  Mg12      1.0  0.75182  0.51893  0.10014  1.0000
  Mg  Mg13      1.0  0.75182  0.76893  0.00135  1.0000
  Mg  Mg14      1.0  0.49993  0.51767  0.19738  1.0000
  Mg  Mg15      1.0  0.50265  0.77955  0.29707  1.0000
  Mg  Mg16      1.0  0.76233  0.51853  0.29952  1.0000
  Mg  Mg17      1.0  0.75384  0.76867  0.20068  1.0000
  Mg  Mg18      1.0  0.75106  0.26914  0.20094  1.0000
  Mg  Mg19      1.0  0.00356  0.51978  0.20072  1.0000
  Mg  Mg20      1.0  0.00182  0.01893  0.00135  1.0000
  Mg  Mg21      1.0  0.50182  0.26893  0.10014  1.0000
  Mg  Mg22      1.0  0.00208  0.26693  0.29867  1.0000
  Mg  Mg23      1.0  0.25001  0.01906  0.29778  1.0000
  Mg  Mg24      1.0  0.25272  0.27059  0.20151  1.0000
  Mg  Mg25      1.0  0.25182  0.01893  0.10014  1.0000
  Mg  Mg26      1.0  0.00182  0.51893  0.00135  1.0000
  Mg  Mg27      1.0  0.00182  0.26893  0.10014  1.0000
  Mg  Mg28      1.0  0.25182  0.26893  0.00135  1.0000
  Mg  Mg29      1.0  0.00216  0.01755  0.20010  1.0000
  Mg  Mg30      1.0  0.00182  0.76893  0.10014  1.0000
  Mg  Mg31      1.0  0.25182  0.51893  0.10014  1.0000
  Mg  Mg32      1.0  0.25182  0.76893  0.00135  1.0000
  O   O1        1.0  0.00182  0.26893  0.00135  1.0000
  O   O2        1.0  0.48101  0.28124  0.40832  1.0000
  O   O3        1.0  0.51170  0.52292  0.30980  1.0000
  O   O4        1.0  0.25182  0.01893  0.00135  1.0000
  O   O5        1.0  0.75182  0.76893  0.10014  1.0000
  O   O6        1.0  0.74910  0.76899  0.30066  1.0000
  O   O7        1.0  0.50182  0.76893  0.00135  1.0000
  O   O8        1.0  0.50182  0.51893  0.10014  1.0000
  O   O9        1.0  0.25182  0.26893  0.10014  1.0000
  O   O10       1.0  0.00182  0.01893  0.10014  1.0000
  O   O11       1.0  0.50248  0.76638  0.20018  1.0000
  O   O12       1.0  0.74797  0.51899  0.20104  1.0000
  O   O13       1.0  0.75182  0.51893  0.00135  1.0000
  O   O14       1.0  0.00182  0.76893  0.00135  1.0000
  O   O15       1.0  0.50228  0.27158  0.20151  1.0000
  O   O16       1.0  0.00182  0.51893  0.10014  1.0000
  O   O17       1.0  0.25182  0.76893  0.10014  1.0000
  O   O18       1.0  0.25637  0.77093  0.29974  1.0000
  O   O19       1.0  0.25472  0.51916  0.20137  1.0000
  O   O20       1.0  0.00153  0.76860  0.20023  1.0000
  O   O21       1.0  0.99978  0.51637  0.29933  1.0000
  O   O22       1.0  0.00184  0.01927  0.30154  1.0000
  O   O23       1.0  0.50275  0.01748  0.30088  1.0000
  O   O24       1.0  0.00137  0.26870  0.19953  1.0000
  O   O25       1.0  0.75182  0.26893  0.10014  1.0000
  O   O26       1.0  0.75182  0.01893  0.00135  1.0000
  O   O27       1.0  0.50182  0.26893  0.00135  1.0000
  O   O28       1.0  0.50182  0.01893  0.10014  1.0000
  O   O29       1.0  0.25099  0.26789  0.29977  1.0000
  O   O30       1.0  0.25182  0.51893  0.00135  1.0000
  O   O31       1.0  0.75129  0.01884  0.19986  1.0000
  O   O32       1.0  0.25259  0.01900  0.19953  1.0000
  O   O33       1.0  0.75287  0.26873  0.30070  1.0000
  O   O34       1.0  0.28447  0.52024  0.40447  1.0000
  O   O35       1.0  0.01442  0.71995  0.40750  1.0000
  H   H1        1.0  0.39105  0.36164  0.41540  1.0000
  H   H2        1.0  0.45417  0.18426  0.43063  1.0000
  H   H3        1.0  0.33171  0.60419  0.42973  1.0000
  H   H4        1.0  0.47292  0.52486  0.35378  1.0000
  H   H5        1.0  0.10036  0.63786  0.41123  1.0000
  H   H6        1.0  0.04267  0.80529  0.43621  1.0000
data_image37
_chemical_formula_structural       Mg32O33H2
_chemical_formula_sum              "Mg32 O33 H2"
_cell_length_a       8.424
_cell_length_b       8.424
_cell_length_c       21.318
_cell_angle_alpha    90
_cell_angle_beta     90
_cell_angle_gamma    90

_space_group_name_H-M_alt    "P 1"
_space_group_IT_number       1

loop_
  _space_group_symop_operation_xyz
  'x, y, z'

loop_
  _atom_site_type_symbol
  _atom_site_label
  _atom_site_symmetry_multiplicity
  _atom_site_fract_x
  _atom_site_fract_y
  _atom_site_fract_z
  _atom_site_occupancy
  Mg  Mg1       1.0  0.24756  0.50067  0.29711  1.0000
  Mg  Mg2       1.0  0.25016  0.75034  0.19884  1.0000
  Mg  Mg3       1.0  0.50000  0.00000  0.00000  1.0000
  Mg  Mg4       1.0  0.75000  0.00000  0.09879  1.0000
  Mg  Mg5       1.0  0.75000  0.25000  0.00000  1.0000
  Mg  Mg6       1.0  0.50012  0.00082  0.19928  1.0000
  Mg  Mg7       1.0  0.50137  0.24420  0.30355  1.0000
  Mg  Mg8       1.0  0.99981  0.75047  0.29810  1.0000
  Mg  Mg9       1.0  0.75080  0.00001  0.29825  1.0000
  Mg  Mg10      1.0  0.50000  0.50000  0.00000  1.0000
  Mg  Mg11      1.0  0.50000  0.75000  0.09879  1.0000
  Mg  Mg12      1.0  0.75000  0.50000  0.09879  1.0000
  Mg  Mg13      1.0  0.75000  0.75000  0.00000  1.0000
  Mg  Mg14      1.0  0.50018  0.49896  0.19930  1.0000
  Mg  Mg15      1.0  0.50017  0.75193  0.29820  1.0000
  Mg  Mg16      1.0  0.75221  0.50009  0.29789  1.0000
  Mg  Mg17      1.0  0.74983  0.75023  0.19893  1.0000
  Mg  Mg18      1.0  0.74909  0.24981  0.19940  1.0000
  Mg  Mg19      1.0  0.99974  0.49979  0.19867  1.0000
  Mg  Mg20      1.0  0.00000  0.00000  0.00000  1.0000
  Mg  Mg21      1.0  0.50000  0.25000  0.09879  1.0000
  Mg  Mg22      1.0  0.99951  0.24965  0.29793  1.0000
  Mg  Mg23      1.0  0.24922  0.99963  0.29797  1.0000
  Mg  Mg24      1.0  0.25099  0.24974  0.19943  1.0000
  Mg  Mg25      1.0  0.25000  0.00000  0.09879  1.0000
  Mg  Mg26      1.0  0.00000  0.50000  0.00000  1.0000
  Mg  Mg27      1.0  0.00000  0.25000  0.09879  1.0000
  Mg  Mg28      1.0  0.25000  0.25000  0.00000  1.0000
  Mg  Mg29      1.0  0.99987  0.00026  0.19879  1.0000
  Mg  Mg30      1.0  0.00000  0.75000  0.09879  1.0000
  Mg  Mg31      1.0  0.25000  0.50000  0.09879  1.0000
  Mg  Mg32      1.0  0.25000  0.75000  0.00000  1.0000
  O   O1        1.0  0.00000  0.25000  0.00000  1.0000
  O   O2        1.0  0.49910  0.31755  0.40486  1.0000
  O   O3        1.0  0.49977  0.50406  0.30288  1.0000
  O   O4        1.0  0.25000  0.00000  0.00000  1.0000
  O   O5        1.0  0.75000  0.75000  0.09879  1.0000
  O   O6        1.0  0.75059  0.75001  0.30001  1.0000
  O   O7        1.0  0.50000  0.75000  0.00000  1.0000
  O   O8        1.0  0.50000  0.50000  0.09879  1.0000
  O   O9        1.0  0.25000  0.25000  0.09879  1.0000
  O   O10       1.0  0.00000  0.00000  0.09879  1.0000
  O   O11       1.0  0.49990  0.74937  0.19893  1.0000
  O   O12       1.0  0.74940  0.50036  0.19896  1.0000
  O   O13       1.0  0.75000  0.50000  0.00000  1.0000
  O   O14       1.0  0.00000  0.75000  0.00000  1.0000
  O   O15       1.0  0.49977  0.25051  0.19968  1.0000
  O   O16       1.0  0.00000  0.50000  0.09879  1.0000
  O   O17       1.0  0.25000  0.75000  0.09879  1.0000
  O   O18       1.0  0.24938  0.74996  0.30004  1.0000
  O   O19       1.0  0.25056  0.50016  0.19894  1.0000
  O   O20       1.0  0.00009  0.74984  0.19864  1.0000
  O   O21       1.0  0.00011  0.50046  0.29987  1.0000
  O   O22       1.0  0.00010  0.99968  0.29996  1.0000
  O   O23       1.0  0.49984  0.99795  0.29997  1.0000
  O   O24       1.0  0.00032  0.25021  0.19852  1.0000
  O   O25       1.0  0.75000  0.25000  0.09879  1.0000
  O   O26       1.0  0.75000  0.00000  0.00000  1.0000
  O   O27       1.0  0.50000  0.25000  0.00000  1.0000
  O   O28       1.0  0.50000  0.00000  0.09879  1.0000
  O   O29       1.0  0.24820  0.25027  0.30027  1.0000
  O   O30       1.0  0.25000  0.50000  0.00000  1.0000
  O   O31       1.0  0.74998  0.99967  0.19871  1.0000
  O   O32       1.0  0.25002  0.99988  0.19878  1.0000
  O   O33       1.0  0.75179  0.25017  0.29897  1.0000
  H   H1        1.0  0.49308  0.42149  0.38178  1.0000
  H   H2        1.0  0.39433  0.30075  0.42314  1.0000
data_image38
_chemical_formula_structural       Ca32O34H4
_chemical_formula_sum              "Ca32 O34 H4"
_cell_length_a       9.62
_cell_length_b       9.62
_cell_length_c       22.215
_cell_angle_alpha    90
_cell_angle_beta     90
_cell_angle_gamma    90

_space_group_name_H-M_alt    "P 1"
_space_group_IT_number       1

loop_
  _space_group_symop_operation_xyz
  'x, y, z'

loop_
  _atom_site_type_symbol
  _atom_site_label
  _atom_site_symmetry_multiplicity
  _atom_site_fract_x
  _atom_site_fract_y
  _atom_site_fract_z
  _atom_site_occupancy
  Ca  Ca1       1.0  0.10357  0.09376  0.02120  1.0000
  Ca  Ca2       1.0  0.34803  0.60074  0.35211  1.0000
  Ca  Ca3       1.0  0.35669  0.84066  0.23885  1.0000
  Ca  Ca4       1.0  0.60357  0.09376  0.02120  1.0000
  Ca  Ca5       1.0  0.85357  0.09376  0.12946  1.0000
  Ca  Ca6       1.0  0.85357  0.34376  0.02120  1.0000
  Ca  Ca7       1.0  0.60405  0.09300  0.23899  1.0000
  Ca  Ca8       1.0  0.61063  0.33819  0.35209  1.0000
  Ca  Ca9       1.0  0.85606  0.09232  0.34508  1.0000
  Ca  Ca10      1.0  0.85050  0.34687  0.23884  1.0000
  Ca  Ca11      1.0  0.60357  0.59376  0.02120  1.0000
  Ca  Ca12      1.0  0.60357  0.84376  0.12946  1.0000
  Ca  Ca13      1.0  0.85357  0.59376  0.12946  1.0000
  Ca  Ca14      1.0  0.85357  0.84376  0.02120  1.0000
  Ca  Ca15      1.0  0.60421  0.59438  0.23703  1.0000
  Ca  Ca16      1.0  0.61375  0.85009  0.35359  1.0000
  Ca  Ca17      1.0  0.85995  0.60393  0.35358  1.0000
  Ca  Ca18      1.0  0.85268  0.84285  0.23753  1.0000
  Ca  Ca19      1.0  0.10215  0.84623  0.34508  1.0000
  Ca  Ca20      1.0  0.10284  0.59420  0.23899  1.0000
  Ca  Ca21      1.0  0.60357  0.34376  0.12946  1.0000
  Ca  Ca22      1.0  0.09205  0.34242  0.34515  1.0000
  Ca  Ca23      1.0  0.10357  0.34376  0.12946  1.0000
  Ca  Ca24      1.0  0.35357  0.09376  0.12946  1.0000
  Ca  Ca25      1.0  0.35357  0.84376  0.02120  1.0000
  Ca  Ca26      1.0  0.35357  0.59376  0.12946  1.0000
  Ca  Ca27      1.0  0.10357  0.84376  0.12946  1.0000
  Ca  Ca28      1.0  0.10357  0.59376  0.02120  1.0000
  Ca  Ca29      1.0  0.35357  0.34376  0.02120  1.0000
  Ca  Ca30      1.0  0.10319  0.09337  0.23769  1.0000
  Ca  Ca31      1.0  0.35226  0.08223  0.34515  1.0000
  Ca  Ca32      1.0  0.35423  0.34439  0.23752  1.0000
  O   O1        1.0  0.10276  0.34383  0.23949  1.0000
  O   O2        1.0  0.45629  0.44604  0.43054  1.0000
  O   O3        1.0  0.59818  0.58837  0.33856  1.0000
  O   O4        1.0  0.60400  0.84369  0.23890  1.0000
  O   O5        1.0  0.85352  0.59416  0.23890  1.0000
  O   O6        1.0  0.86063  0.85079  0.33972  1.0000
  O   O7        1.0  0.10357  0.84376  0.02120  1.0000
  O   O8        1.0  0.10357  0.59376  0.12946  1.0000
  O   O9        1.0  0.35514  0.84145  0.34606  1.0000
  O   O10       1.0  0.35357  0.34376  0.12946  1.0000
  O   O11       1.0  0.60357  0.59376  0.12946  1.0000
  O   O12       1.0  0.60357  0.84376  0.02120  1.0000
  O   O13       1.0  0.85357  0.59376  0.02120  1.0000
  O   O14       1.0  0.85357  0.84376  0.12946  1.0000
  O   O15       1.0  0.35357  0.09376  0.02120  1.0000
  O   O16       1.0  0.10372  0.09388  0.34451  1.0000
  O   O17       1.0  0.10357  0.34376  0.02120  1.0000
  O   O18       1.0  0.35313  0.59167  0.24001  1.0000
  O   O19       1.0  0.60343  0.09398  0.34630  1.0000
  O   O20       1.0  0.60151  0.34330  0.24000  1.0000
  O   O21       1.0  0.85355  0.09633  0.23860  1.0000
  O   O22       1.0  0.85133  0.34533  0.34605  1.0000
  O   O23       1.0  0.35357  0.84376  0.12946  1.0000
  O   O24       1.0  0.10613  0.84373  0.23861  1.0000
  O   O25       1.0  0.10384  0.59357  0.34631  1.0000
  O   O26       1.0  0.34044  0.33067  0.34321  1.0000
  O   O27       1.0  0.60357  0.09376  0.12946  1.0000
  O   O28       1.0  0.60357  0.34376  0.02120  1.0000
  O   O29       1.0  0.85357  0.09376  0.02120  1.0000
  O   O30       1.0  0.85357  0.34376  0.12946  1.0000
  O   O31       1.0  0.35366  0.09291  0.23950  1.0000
  O   O32       1.0  0.10357  0.09376  0.12946  1.0000
  O   O33       1.0  0.35357  0.59376  0.02120  1.0000
  O   O34       1.0  0.70666  0.69675  0.43137  1.0000
  H   H1        1.0  0.37040  0.36044  0.38571  1.0000
  H   H2        1.0  0.44541  0.43486  0.47370  1.0000
  H   H3        1.0  0.67586  0.66586  0.47077  1.0000
  H   H4        1.0  0.61886  0.60898  0.38277  1.0000
data_image39
_chemical_formula_structural       Ca48O63H30
_chemical_formula_sum              "Ca48 O63 H30"
_cell_length_a       10.2036
_cell_length_b       13.6047
_cell_length_c       24.62
_cell_angle_alpha    90
_cell_angle_beta     90
_cell_angle_gamma    90

_space_group_name_H-M_alt    "P 1"
_space_group_IT_number       1

loop_
  _space_group_symop_operation_xyz
  'x, y, z'

loop_
  _atom_site_type_symbol
  _atom_site_label
  _atom_site_symmetry_multiplicity
  _atom_site_fract_x
  _atom_site_fract_y
  _atom_site_fract_z
  _atom_site_occupancy
  Ca  Ca1       1.0  0.01534  0.95620  0.04720  1.0000
  Ca  Ca2       1.0  0.01534  0.70620  0.04720  1.0000
  Ca  Ca3       1.0  0.18201  0.83120  0.14489  1.0000
  Ca  Ca4       1.0  0.34868  0.70620  0.04720  1.0000
  Ca  Ca5       1.0  0.51534  0.83120  0.14489  1.0000
  Ca  Ca6       1.0  0.68201  0.70620  0.04720  1.0000
  Ca  Ca7       1.0  0.84868  0.83120  0.14489  1.0000
  Ca  Ca8       1.0  0.01569  0.95470  0.24306  1.0000
  Ca  Ca9       1.0  0.18066  0.06821  0.34559  1.0000
  Ca  Ca10      1.0  0.34798  0.95565  0.24235  1.0000
  Ca  Ca11      1.0  0.51545  0.06849  0.34402  1.0000
  Ca  Ca12      1.0  0.68214  0.95504  0.24242  1.0000
  Ca  Ca13      1.0  0.84747  0.07103  0.34362  1.0000
  Ca  Ca14      1.0  0.01585  0.20584  0.24247  1.0000
  Ca  Ca15      1.0  0.18274  0.34357  0.34304  1.0000
  Ca  Ca16      1.0  0.34859  0.20568  0.24281  1.0000
  Ca  Ca17      1.0  0.68147  0.20588  0.24280  1.0000
  Ca  Ca18      1.0  0.84761  0.34020  0.34301  1.0000
  Ca  Ca19      1.0  0.01575  0.45729  0.24260  1.0000
  Ca  Ca20      1.0  0.18836  0.57997  0.34445  1.0000
  Ca  Ca21      1.0  0.34885  0.45764  0.24232  1.0000
  Ca  Ca22      1.0  0.50643  0.58002  0.34518  1.0000
  Ca  Ca23      1.0  0.68132  0.45763  0.24293  1.0000
  Ca  Ca24      1.0  0.85054  0.57191  0.34513  1.0000
  Ca  Ca25      1.0  0.01522  0.70659  0.24267  1.0000
  Ca  Ca26      1.0  0.18984  0.83230  0.34441  1.0000
  Ca  Ca27      1.0  0.34845  0.70608  0.24316  1.0000
  Ca  Ca28      1.0  0.50860  0.83371  0.34262  1.0000
  Ca  Ca29      1.0  0.68231  0.70617  0.24279  1.0000
  Ca  Ca30      1.0  0.84848  0.84063  0.34699  1.0000
  Ca  Ca31      1.0  0.84868  0.58120  0.14489  1.0000
  Ca  Ca32      1.0  0.68201  0.45620  0.04720  1.0000
  Ca  Ca33      1.0  0.51613  0.34323  0.34349  1.0000
  Ca  Ca34      1.0  0.51534  0.33120  0.14489  1.0000
  Ca  Ca35      1.0  0.51534  0.08120  0.14489  1.0000
  Ca  Ca36      1.0  0.18201  0.08120  0.14489  1.0000
  Ca  Ca37      1.0  0.68201  0.95620  0.04720  1.0000
  Ca  Ca38      1.0  0.84868  0.08120  0.14489  1.0000
  Ca  Ca39      1.0  0.01534  0.20620  0.04720  1.0000
  Ca  Ca40      1.0  0.18201  0.33120  0.14489  1.0000
  Ca  Ca41      1.0  0.34868  0.20620  0.04720  1.0000
  Ca  Ca42      1.0  0.68201  0.20620  0.04720  1.0000
  Ca  Ca43      1.0  0.84868  0.33120  0.14489  1.0000
  Ca  Ca44      1.0  0.01534  0.45620  0.04720  1.0000
  Ca  Ca45      1.0  0.34868  0.95620  0.04720  1.0000
  Ca  Ca46      1.0  0.51534  0.58120  0.14489  1.0000
  Ca  Ca47      1.0  0.34868  0.45620  0.04720  1.0000
  Ca  Ca48      1.0  0.18201  0.58120  0.14489  1.0000
  O   O1        1.0  0.34946  0.70626  0.33678  1.0000
  O   O2        1.0  0.18201  0.08120  0.04720  1.0000
  O   O3        1.0  0.84831  0.82958  0.24422  1.0000
  O   O4        1.0  0.68954  0.70879  0.34134  1.0000
  O   O5        1.0  0.51645  0.83062  0.24342  1.0000
  O   O6        1.0  0.51534  0.58120  0.04720  1.0000
  O   O7        1.0  0.01782  0.70517  0.33933  1.0000
  O   O8        1.0  0.34868  0.20620  0.14489  1.0000
  O   O9        1.0  0.34916  0.95489  0.33715  1.0000
  O   O10       1.0  0.51474  0.08279  0.24400  1.0000
  O   O11       1.0  0.01499  0.95390  0.33662  1.0000
  O   O12       1.0  0.18208  0.08273  0.24432  1.0000
  O   O13       1.0  0.84868  0.33120  0.04720  1.0000
  O   O14       1.0  0.68201  0.20620  0.14489  1.0000
  O   O15       1.0  0.68201  0.70620  0.14489  1.0000
  O   O16       1.0  0.84868  0.83120  0.04720  1.0000
  O   O17       1.0  0.34868  0.70620  0.14489  1.0000
  O   O18       1.0  0.51534  0.83120  0.04720  1.0000
  O   O19       1.0  0.18201  0.58120  0.04720  1.0000
  O   O20       1.0  0.01534  0.45620  0.14489  1.0000
  O   O21       1.0  0.01534  0.70620  0.14489  1.0000
  O   O22       1.0  0.18201  0.83120  0.04720  1.0000
  O   O23       1.0  0.68201  0.45620  0.14489  1.0000
  O   O24       1.0  0.84868  0.58120  0.04720  1.0000
  O   O25       1.0  0.51534  0.33120  0.04720  1.0000
  O   O26       1.0  0.84933  0.08301  0.24466  1.0000
  O   O27       1.0  0.68163  0.95573  0.33527  1.0000
  O   O28       1.0  0.18279  0.32966  0.24443  1.0000
  O   O29       1.0  0.18126  0.83069  0.24311  1.0000
  O   O30       1.0  0.51534  0.08120  0.04720  1.0000
  O   O31       1.0  0.68089  0.45757  0.33741  1.0000
  O   O32       1.0  0.34868  0.45620  0.14489  1.0000
  O   O33       1.0  0.34868  0.95620  0.14489  1.0000
  O   O34       1.0  0.34866  0.45804  0.33696  1.0000
  O   O35       1.0  0.51686  0.58186  0.24352  1.0000
  O   O36       1.0  0.84868  0.08120  0.04720  1.0000
  O   O37       1.0  0.01534  0.95620  0.14489  1.0000
  O   O38       1.0  0.01545  0.45591  0.33610  1.0000
  O   O39       1.0  0.68201  0.95620  0.14489  1.0000
  O   O40       1.0  0.68680  0.20917  0.34041  1.0000
  O   O41       1.0  0.84841  0.32950  0.24447  1.0000
  O   O42       1.0  0.18201  0.33120  0.04720  1.0000
  O   O43       1.0  0.34876  0.20562  0.34128  1.0000
  O   O44       1.0  0.51470  0.33002  0.24453  1.0000
  O   O45       1.0  0.01534  0.20620  0.14489  1.0000
  O   O46       1.0  0.01662  0.20654  0.34036  1.0000
  O   O47       1.0  0.18076  0.58155  0.24330  1.0000
  O   O48       1.0  0.84834  0.58210  0.24465  1.0000
  O   O49       1.0  0.19936  0.30959  0.43890  1.0000
  O   O50       1.0  0.15829  0.11829  0.43553  1.0000
  O   O51       1.0  0.12988  0.58010  0.44122  1.0000
  O   O52       1.0  0.17998  0.82159  0.44238  1.0000
  O   O53       1.0  0.54613  0.83328  0.44223  1.0000
  O   O54       1.0  0.81089  0.89745  0.44475  1.0000
  O   O55       1.0  0.56744  0.64695  0.43210  1.0000
  O   O56       1.0  0.48428  0.32119  0.43892  1.0000
  O   O57       1.0  0.81580  0.52138  0.44144  1.0000
  O   O58       1.0  0.86460  0.29374  0.43637  1.0000
  O   O59       1.0  0.90223  0.08975  0.44066  1.0000
  O   O60       1.0  0.56128  0.13863  0.42694  1.0000
  O   O61       1.0  0.01422  0.42431  0.48532  1.0000
  O   O62       1.0  0.33737  0.68167  0.49049  1.0000
  O   O63       1.0  0.93584  0.72793  0.43939  1.0000
  H   H1        1.0  0.13559  0.34944  0.46120  1.0000
  H   H2        1.0  0.18127  0.23650  0.44511  1.0000
  H   H3        1.0  0.01519  0.20959  0.38016  1.0000
  H   H4        1.0  0.20382  0.08228  0.46404  1.0000
  H   H5        1.0  0.09103  0.51914  0.45927  1.0000
  H   H6        1.0  0.06397  0.63339  0.44700  1.0000
  H   H7        1.0  0.09325  0.79704  0.45418  1.0000
  H   H8        1.0  0.24452  0.77645  0.46027  1.0000
  H   H9        1.0  0.55578  0.75674  0.44477  1.0000
  H   H10       1.0  0.47639  0.85141  0.46739  1.0000
  H   H11       1.0  0.71652  0.88450  0.45061  1.0000
  H   H12       1.0  0.85894  0.83457  0.45399  1.0000
  H   H13       1.0  0.62809  0.61411  0.45676  1.0000
  H   H14       1.0  0.66510  0.69357  0.38001  1.0000
  H   H15       1.0  0.39204  0.32584  0.45047  1.0000
  H   H16       1.0  0.51230  0.24949  0.44347  1.0000
  H   H17       1.0  0.88883  0.48540  0.46195  1.0000
  H   H18       1.0  0.74387  0.47409  0.43839  1.0000
  H   H19       1.0  0.85951  0.22665  0.45117  1.0000
  H   H20       1.0  0.92118  0.33581  0.46116  1.0000
  H   H21       1.0  0.00240  0.09412  0.44410  1.0000
  H   H22       1.0  0.87584  0.02341  0.45313  1.0000
  H   H23       1.0  0.60300  0.10877  0.45837  1.0000
  H   H24       1.0  0.34996  0.20345  0.38112  1.0000
  H   H25       1.0  0.01700  0.42736  0.52483  1.0000
  H   H26       1.0  0.99470  0.70845  0.37943  1.0000
  H   H27       1.0  0.41780  0.66122  0.47053  1.0000
  H   H28       1.0  0.27075  0.63253  0.48001  1.0000
  H   H29       1.0  0.66164  0.19311  0.37915  1.0000
  H   H30       1.0  0.87604  0.68150  0.45677  1.0000
data_image40
_chemical_formula_structural       Ca48O60H24
_chemical_formula_sum              "Ca48 O60 H24"
_cell_length_a       10.2036
_cell_length_b       13.6047
_cell_length_c       24.62
_cell_angle_alpha    90
_cell_angle_beta     90
_cell_angle_gamma    90

_space_group_name_H-M_alt    "P 1"
_space_group_IT_number       1

loop_
  _space_group_symop_operation_xyz
  'x, y, z'

loop_
  _atom_site_type_symbol
  _atom_site_label
  _atom_site_symmetry_multiplicity
  _atom_site_fract_x
  _atom_site_fract_y
  _atom_site_fract_z
  _atom_site_occupancy
  Ca  Ca1       1.0  0.07526  0.99294  0.04760  1.0000
  Ca  Ca2       1.0  0.07526  0.74294  0.04760  1.0000
  Ca  Ca3       1.0  0.24193  0.86794  0.14528  1.0000
  Ca  Ca4       1.0  0.40860  0.74294  0.04760  1.0000
  Ca  Ca5       1.0  0.57526  0.86794  0.14528  1.0000
  Ca  Ca6       1.0  0.74193  0.74294  0.04760  1.0000
  Ca  Ca7       1.0  0.90860  0.86794  0.14528  1.0000
  Ca  Ca8       1.0  0.07682  0.99197  0.24394  1.0000
  Ca  Ca9       1.0  0.24602  0.12144  0.34260  1.0000
  Ca  Ca10      1.0  0.40733  0.99323  0.24326  1.0000
  Ca  Ca11      1.0  0.55965  0.11860  0.34624  1.0000
  Ca  Ca12      1.0  0.74163  0.99280  0.24333  1.0000
  Ca  Ca13      1.0  0.92321  0.12000  0.34331  1.0000
  Ca  Ca14      1.0  0.07664  0.24389  0.24332  1.0000
  Ca  Ca15      1.0  0.24242  0.36939  0.34368  1.0000
  Ca  Ca16      1.0  0.40750  0.24276  0.24257  1.0000
  Ca  Ca17      1.0  0.74191  0.24301  0.24290  1.0000
  Ca  Ca18      1.0  0.92456  0.36878  0.34524  1.0000
  Ca  Ca19      1.0  0.07700  0.49287  0.24294  1.0000
  Ca  Ca20      1.0  0.24203  0.61794  0.34541  1.0000
  Ca  Ca21      1.0  0.40667  0.49415  0.24313  1.0000
  Ca  Ca22      1.0  0.55880  0.61820  0.34585  1.0000
  Ca  Ca23      1.0  0.74193  0.49322  0.24298  1.0000
  Ca  Ca24      1.0  0.92637  0.61677  0.34327  1.0000
  Ca  Ca25      1.0  0.07708  0.74311  0.24360  1.0000
  Ca  Ca26      1.0  0.24481  0.86486  0.34521  1.0000
  Ca  Ca27      1.0  0.40688  0.74228  0.24300  1.0000
  Ca  Ca28      1.0  0.55723  0.86820  0.34283  1.0000
  Ca  Ca29      1.0  0.74184  0.74268  0.24329  1.0000
  Ca  Ca30      1.0  0.92277  0.86570  0.34635  1.0000
  Ca  Ca31      1.0  0.90860  0.61794  0.14528  1.0000
  Ca  Ca32      1.0  0.74193  0.49294  0.04760  1.0000
  Ca  Ca33      1.0  0.55783  0.36800  0.34148  1.0000
  Ca  Ca34      1.0  0.57526  0.36794  0.14528  1.0000
  Ca  Ca35      1.0  0.57526  0.11794  0.14528  1.0000
  Ca  Ca36      1.0  0.24193  0.11794  0.14528  1.0000
  Ca  Ca37      1.0  0.74193  0.99294  0.04760  1.0000
  Ca  Ca38      1.0  0.90860  0.11794  0.14528  1.0000
  Ca  Ca39      1.0  0.07526  0.24294  0.04760  1.0000
  Ca  Ca40      1.0  0.24193  0.36794  0.14528  1.0000
  Ca  Ca41      1.0  0.40860  0.24294  0.04760  1.0000
  Ca  Ca42      1.0  0.74193  0.24294  0.04760  1.0000
  Ca  Ca43      1.0  0.90860  0.36794  0.14528  1.0000
  Ca  Ca44      1.0  0.07526  0.49294  0.04760  1.0000
  Ca  Ca45      1.0  0.40860  0.99294  0.04760  1.0000
  Ca  Ca46      1.0  0.57526  0.61794  0.14528  1.0000
  Ca  Ca47      1.0  0.40860  0.49294  0.04760  1.0000
  Ca  Ca48      1.0  0.24193  0.61794  0.14528  1.0000
  O   O1        1.0  0.40684  0.74257  0.33665  1.0000
  O   O2        1.0  0.24193  0.11794  0.04760  1.0000
  O   O3        1.0  0.90661  0.86827  0.24541  1.0000
  O   O4        1.0  0.74545  0.74232  0.34159  1.0000
  O   O5        1.0  0.57747  0.86786  0.24485  1.0000
  O   O6        1.0  0.57526  0.61794  0.04760  1.0000
  O   O7        1.0  0.07635  0.74244  0.33855  1.0000
  O   O8        1.0  0.40860  0.24294  0.14528  1.0000
  O   O9        1.0  0.40770  0.99444  0.33712  1.0000
  O   O10       1.0  0.57816  0.11839  0.24452  1.0000
  O   O11       1.0  0.07580  0.99184  0.34055  1.0000
  O   O12       1.0  0.24071  0.11788  0.24354  1.0000
  O   O13       1.0  0.90860  0.36794  0.04760  1.0000
  O   O14       1.0  0.74193  0.24294  0.14528  1.0000
  O   O15       1.0  0.74193  0.74294  0.14528  1.0000
  O   O16       1.0  0.90860  0.86794  0.04760  1.0000
  O   O17       1.0  0.40860  0.74294  0.14528  1.0000
  O   O18       1.0  0.57526  0.86794  0.04760  1.0000
  O   O19       1.0  0.24193  0.61794  0.04760  1.0000
  O   O20       1.0  0.07526  0.49294  0.14528  1.0000
  O   O21       1.0  0.07526  0.74294  0.14528  1.0000
  O   O22       1.0  0.24193  0.86794  0.04760  1.0000
  O   O23       1.0  0.74193  0.49294  0.14528  1.0000
  O   O24       1.0  0.90860  0.61794  0.04760  1.0000
  O   O25       1.0  0.57526  0.36794  0.04760  1.0000
  O   O26       1.0  0.90710  0.11775  0.24580  1.0000
  O   O27       1.0  0.73750  0.99307  0.34113  1.0000
  O   O28       1.0  0.24232  0.36794  0.24299  1.0000
  O   O29       1.0  0.24150  0.86829  0.24335  1.0000
  O   O30       1.0  0.57526  0.11794  0.04760  1.0000
  O   O31       1.0  0.73801  0.49249  0.34075  1.0000
  O   O32       1.0  0.40860  0.49294  0.14528  1.0000
  O   O33       1.0  0.40860  0.99294  0.14528  1.0000
  O   O34       1.0  0.40766  0.49311  0.33782  1.0000
  O   O35       1.0  0.57781  0.61796  0.24453  1.0000
  O   O36       1.0  0.90860  0.11794  0.04760  1.0000
  O   O37       1.0  0.07526  0.99294  0.14528  1.0000
  O   O38       1.0  0.07675  0.49178  0.33653  1.0000
  O   O39       1.0  0.74193  0.99294  0.14528  1.0000
  O   O40       1.0  0.74393  0.24286  0.34140  1.0000
  O   O41       1.0  0.90599  0.36764  0.24465  1.0000
  O   O42       1.0  0.24193  0.36794  0.04760  1.0000
  O   O43       1.0  0.40595  0.24348  0.33645  1.0000
  O   O44       1.0  0.57725  0.36781  0.24457  1.0000
  O   O45       1.0  0.07526  0.24294  0.14528  1.0000
  O   O46       1.0  0.07692  0.24354  0.33861  1.0000
  O   O47       1.0  0.24151  0.61798  0.24283  1.0000
  O   O48       1.0  0.90650  0.61791  0.24500  1.0000
  O   O49       1.0  0.30540  0.38214  0.44557  1.0000
  O   O50       1.0  0.15994  0.05737  0.43316  1.0000
  O   O51       1.0  0.20474  0.58941  0.44387  1.0000
  O   O52       1.0  0.29556  0.87625  0.44324  1.0000
  O   O53       1.0  0.59102  0.84313  0.43956  1.0000
  O   O54       1.0  0.84731  0.89932  0.43447  1.0000
  O   O55       1.0  0.63539  0.64594  0.43425  1.0000
  O   O56       1.0  0.57711  0.34235  0.43941  1.0000
  O   O57       1.0  0.89000  0.58541  0.43952  1.0000
  O   O58       1.0  0.83929  0.38842  0.43345  1.0000
  O   O59       1.0  0.87157  0.09667  0.43919  1.0000
  O   O60       1.0  0.61560  0.15040  0.43680  1.0000
  H   H1        1.0  0.40280  0.37623  0.44811  1.0000
  H   H2        1.0  0.27160  0.33294  0.47074  1.0000
  H   H3        1.0  0.08869  0.08593  0.45460  1.0000
  H   H4        1.0  0.11239  0.02121  0.40127  1.0000
  H   H5        1.0  0.23082  0.52162  0.45247  1.0000
  H   H6        1.0  0.11163  0.59463  0.45346  1.0000
  H   H7        1.0  0.38934  0.87123  0.45196  1.0000
  H   H8        1.0  0.26680  0.94275  0.45367  1.0000
  H   H9        1.0  0.59985  0.76918  0.44344  1.0000
  H   H10       1.0  0.68321  0.86812  0.44575  1.0000
  H   H11       1.0  0.89014  0.87129  0.46625  1.0000
  H   H12       1.0  0.74847  0.98795  0.38064  1.0000
  H   H13       1.0  0.73507  0.73778  0.38120  1.0000
  H   H14       1.0  0.59145  0.61944  0.46617  1.0000
  H   H15       1.0  0.58576  0.26698  0.44311  1.0000
  H   H16       1.0  0.66879  0.36731  0.44621  1.0000
  H   H17       1.0  0.87861  0.51190  0.44363  1.0000
  H   H18       1.0  0.79874  0.61238  0.44579  1.0000
  H   H19       1.0  0.74470  0.48997  0.38050  1.0000
  H   H20       1.0  0.87526  0.35532  0.46520  1.0000
  H   H21       1.0  0.77850  0.12039  0.44522  1.0000
  H   H22       1.0  0.86608  0.02259  0.44408  1.0000
  H   H23       1.0  0.57425  0.11798  0.46760  1.0000
  H   H24       1.0  0.74206  0.24847  0.38116  1.0000
data_image41
_chemical_formula_structural       Ca32O33H2
_chemical_formula_sum              "Ca32 O33 H2"
_cell_length_a       9.62
_cell_length_b       9.62
_cell_length_c       22.215
_cell_angle_alpha    90
_cell_angle_beta     90
_cell_angle_gamma    90

_space_group_name_H-M_alt    "P 1"
_space_group_IT_number       1

loop_
  _space_group_symop_operation_xyz
  'x, y, z'

loop_
  _atom_site_type_symbol
  _atom_site_label
  _atom_site_symmetry_multiplicity
  _atom_site_fract_x
  _atom_site_fract_y
  _atom_site_fract_z
  _atom_site_occupancy
  Ca  Ca1       1.0  0.10357  0.09376  0.02120  1.0000
  Ca  Ca2       1.0  0.34799  0.59932  0.34674  1.0000
  Ca  Ca3       1.0  0.35354  0.84407  0.23820  1.0000
  Ca  Ca4       1.0  0.60357  0.09376  0.02120  1.0000
  Ca  Ca5       1.0  0.85357  0.09376  0.12946  1.0000
  Ca  Ca6       1.0  0.85357  0.34376  0.02120  1.0000
  Ca  Ca7       1.0  0.60363  0.09348  0.23820  1.0000
  Ca  Ca8       1.0  0.60912  0.33822  0.34675  1.0000
  Ca  Ca9       1.0  0.85474  0.09260  0.34599  1.0000
  Ca  Ca10      1.0  0.85388  0.34372  0.23820  1.0000
  Ca  Ca11      1.0  0.60357  0.59376  0.02120  1.0000
  Ca  Ca12      1.0  0.60357  0.84376  0.12946  1.0000
  Ca  Ca13      1.0  0.85357  0.59376  0.12946  1.0000
  Ca  Ca14      1.0  0.85357  0.84376  0.02120  1.0000
  Ca  Ca15      1.0  0.60315  0.59335  0.23906  1.0000
  Ca  Ca16      1.0  0.60404  0.84509  0.34625  1.0000
  Ca  Ca17      1.0  0.85487  0.59425  0.34626  1.0000
  Ca  Ca18      1.0  0.85340  0.84359  0.23827  1.0000
  Ca  Ca19      1.0  0.10240  0.84495  0.34599  1.0000
  Ca  Ca20      1.0  0.10328  0.59382  0.23819  1.0000
  Ca  Ca21      1.0  0.60357  0.34376  0.12946  1.0000
  Ca  Ca22      1.0  0.10227  0.34330  0.34626  1.0000
  Ca  Ca23      1.0  0.10357  0.34376  0.12946  1.0000
  Ca  Ca24      1.0  0.35357  0.09376  0.12946  1.0000
  Ca  Ca25      1.0  0.35357  0.84376  0.02120  1.0000
  Ca  Ca26      1.0  0.35357  0.59376  0.12946  1.0000
  Ca  Ca27      1.0  0.10357  0.84376  0.12946  1.0000
  Ca  Ca28      1.0  0.10357  0.59376  0.02120  1.0000
  Ca  Ca29      1.0  0.35357  0.34376  0.02120  1.0000
  Ca  Ca30      1.0  0.10377  0.09395  0.23827  1.0000
  Ca  Ca31      1.0  0.35311  0.09247  0.34626  1.0000
  Ca  Ca32      1.0  0.35401  0.34420  0.23907  1.0000
  O   O1        1.0  0.10391  0.34388  0.23909  1.0000
  O   O2        1.0  0.47879  0.46892  0.44093  1.0000
  O   O3        1.0  0.60544  0.59566  0.34598  1.0000
  O   O4        1.0  0.60348  0.84345  0.23909  1.0000
  O   O5        1.0  0.85325  0.59366  0.23909  1.0000
  O   O6        1.0  0.85376  0.84397  0.34461  1.0000
  O   O7        1.0  0.10357  0.84376  0.02120  1.0000
  O   O8        1.0  0.10357  0.59376  0.12946  1.0000
  O   O9        1.0  0.35291  0.84453  0.34439  1.0000
  O   O10       1.0  0.35357  0.34376  0.12946  1.0000
  O   O11       1.0  0.60357  0.59376  0.12946  1.0000
  O   O12       1.0  0.60357  0.84376  0.02120  1.0000
  O   O13       1.0  0.85357  0.59376  0.02120  1.0000
  O   O14       1.0  0.85357  0.84376  0.12946  1.0000
  O   O15       1.0  0.35357  0.09376  0.02120  1.0000
  O   O16       1.0  0.10338  0.09358  0.34461  1.0000
  O   O17       1.0  0.10357  0.34376  0.02120  1.0000
  O   O18       1.0  0.35342  0.59392  0.23931  1.0000
  O   O19       1.0  0.60422  0.09302  0.34439  1.0000
  O   O20       1.0  0.60373  0.34362  0.23931  1.0000
  O   O21       1.0  0.85372  0.09364  0.23888  1.0000
  O   O22       1.0  0.85432  0.34312  0.34439  1.0000
  O   O23       1.0  0.35357  0.84376  0.12946  1.0000
  O   O24       1.0  0.10345  0.84390  0.23888  1.0000
  O   O25       1.0  0.10281  0.59443  0.34439  1.0000
  O   O26       1.0  0.35172  0.34192  0.34600  1.0000
  O   O27       1.0  0.60357  0.09376  0.12946  1.0000
  O   O28       1.0  0.60357  0.34376  0.02120  1.0000
  O   O29       1.0  0.85357  0.09376  0.02120  1.0000
  O   O30       1.0  0.85357  0.34376  0.12946  1.0000
  O   O31       1.0  0.35369  0.09410  0.23910  1.0000
  O   O32       1.0  0.10357  0.09376  0.12946  1.0000
  O   O33       1.0  0.35357  0.59376  0.02120  1.0000
  H   H1        1.0  0.41913  0.40932  0.41348  1.0000
  H   H2        1.0  0.53825  0.52846  0.41334  1.0000
data_image42
_chemical_formula_structural       Ca32O33H2
_chemical_formula_sum              "Ca32 O33 H2"
_cell_length_a       9.62
_cell_length_b       9.62
_cell_length_c       22.215
_cell_angle_alpha    90
_cell_angle_beta     90
_cell_angle_gamma    90

_space_group_name_H-M_alt    "P 1"
_space_group_IT_number       1

loop_
  _space_group_symop_operation_xyz
  'x, y, z'

loop_
  _atom_site_type_symbol
  _atom_site_label
  _atom_site_symmetry_multiplicity
  _atom_site_fract_x
  _atom_site_fract_y
  _atom_site_fract_z
  _atom_site_occupancy
  Ca  Ca1       1.0  0.10357  0.09376  0.02120  1.0000
  Ca  Ca2       1.0  0.36019  0.60038  0.35335  1.0000
  Ca  Ca3       1.0  0.35435  0.84095  0.23823  1.0000
  Ca  Ca4       1.0  0.60357  0.09376  0.02120  1.0000
  Ca  Ca5       1.0  0.85357  0.09376  0.12946  1.0000
  Ca  Ca6       1.0  0.85357  0.34376  0.02120  1.0000
  Ca  Ca7       1.0  0.60310  0.09611  0.23920  1.0000
  Ca  Ca8       1.0  0.61020  0.35039  0.35335  1.0000
  Ca  Ca9       1.0  0.85226  0.09249  0.34598  1.0000
  Ca  Ca10      1.0  0.85077  0.34455  0.23822  1.0000
  Ca  Ca11      1.0  0.60357  0.59376  0.02120  1.0000
  Ca  Ca12      1.0  0.60357  0.84376  0.12946  1.0000
  Ca  Ca13      1.0  0.85357  0.59376  0.12946  1.0000
  Ca  Ca14      1.0  0.85357  0.84376  0.02120  1.0000
  Ca  Ca15      1.0  0.60304  0.59323  0.23825  1.0000
  Ca  Ca16      1.0  0.60688  0.84394  0.34530  1.0000
  Ca  Ca17      1.0  0.85373  0.59710  0.34531  1.0000
  Ca  Ca18      1.0  0.85351  0.84371  0.23776  1.0000
  Ca  Ca19      1.0  0.10229  0.84245  0.34598  1.0000
  Ca  Ca20      1.0  0.10589  0.59331  0.23920  1.0000
  Ca  Ca21      1.0  0.60357  0.34376  0.12946  1.0000
  Ca  Ca22      1.0  0.09316  0.34355  0.34538  1.0000
  Ca  Ca23      1.0  0.10357  0.34376  0.12946  1.0000
  Ca  Ca24      1.0  0.35357  0.09376  0.12946  1.0000
  Ca  Ca25      1.0  0.35357  0.84376  0.02120  1.0000
  Ca  Ca26      1.0  0.35357  0.59376  0.12946  1.0000
  Ca  Ca27      1.0  0.10357  0.84376  0.12946  1.0000
  Ca  Ca28      1.0  0.10357  0.59376  0.02120  1.0000
  Ca  Ca29      1.0  0.35357  0.34376  0.02120  1.0000
  Ca  Ca30      1.0  0.10326  0.09344  0.23851  1.0000
  Ca  Ca31      1.0  0.35332  0.08338  0.34539  1.0000
  Ca  Ca32      1.0  0.35440  0.34461  0.23749  1.0000
  O   O1        1.0  0.10274  0.34320  0.23935  1.0000
  O   O2        1.0  0.45059  0.44082  0.43280  1.0000
  O   O3        1.0  0.60980  0.60000  0.34061  1.0000
  O   O4        1.0  0.60370  0.84577  0.23850  1.0000
  O   O5        1.0  0.85556  0.59390  0.23851  1.0000
  O   O6        1.0  0.85478  0.84501  0.34440  1.0000
  O   O7        1.0  0.10357  0.84376  0.02120  1.0000
  O   O8        1.0  0.10357  0.59376  0.12946  1.0000
  O   O9        1.0  0.35436  0.84206  0.34544  1.0000
  O   O10       1.0  0.35357  0.34376  0.12946  1.0000
  O   O11       1.0  0.60357  0.59376  0.12946  1.0000
  O   O12       1.0  0.60357  0.84376  0.02120  1.0000
  O   O13       1.0  0.85357  0.59376  0.02120  1.0000
  O   O14       1.0  0.85357  0.84376  0.12946  1.0000
  O   O15       1.0  0.35357  0.09376  0.02120  1.0000
  O   O16       1.0  0.10242  0.09263  0.34510  1.0000
  O   O17       1.0  0.10357  0.34376  0.02120  1.0000
  O   O18       1.0  0.35399  0.59207  0.23940  1.0000
  O   O19       1.0  0.60248  0.09530  0.34561  1.0000
  O   O20       1.0  0.60189  0.34420  0.23939  1.0000
  O   O21       1.0  0.85337  0.09434  0.23914  1.0000
  O   O22       1.0  0.85186  0.34458  0.34543  1.0000
  O   O23       1.0  0.35357  0.84376  0.12946  1.0000
  O   O24       1.0  0.10414  0.84356  0.23914  1.0000
  O   O25       1.0  0.10505  0.59270  0.34562  1.0000
  O   O26       1.0  0.34170  0.33195  0.34272  1.0000
  O   O27       1.0  0.60357  0.09376  0.12946  1.0000
  O   O28       1.0  0.60357  0.34376  0.02120  1.0000
  O   O29       1.0  0.85357  0.09376  0.02120  1.0000
  O   O30       1.0  0.85357  0.34376  0.12946  1.0000
  O   O31       1.0  0.35301  0.09293  0.23936  1.0000
  O   O32       1.0  0.10357  0.09376  0.12946  1.0000
  O   O33       1.0  0.35357  0.59376  0.02120  1.0000
  H   H1        1.0  0.36813  0.35836  0.38616  1.0000
  H   H2        1.0  0.43832  0.42852  0.47581  1.0000
data_image43
_chemical_formula_structural       Ca32O35H6
_chemical_formula_sum              "Ca32 O35 H6"
_cell_length_a       9.62
_cell_length_b       9.62
_cell_length_c       22.215
_cell_angle_alpha    90
_cell_angle_beta     90
_cell_angle_gamma    90

_space_group_name_H-M_alt    "P 1"
_space_group_IT_number       1

loop_
  _space_group_symop_operation_xyz
  'x, y, z'

loop_
  _atom_site_type_symbol
  _atom_site_label
  _atom_site_symmetry_multiplicity
  _atom_site_fract_x
  _atom_site_fract_y
  _atom_site_fract_z
  _atom_site_occupancy
  Ca  Ca1       1.0  0.10357  0.09376  0.02120  1.0000
  Ca  Ca2       1.0  0.33843  0.60555  0.35278  1.0000
  Ca  Ca3       1.0  0.35574  0.84104  0.23866  1.0000
  Ca  Ca4       1.0  0.60357  0.09376  0.02120  1.0000
  Ca  Ca5       1.0  0.85357  0.09376  0.12946  1.0000
  Ca  Ca6       1.0  0.85357  0.34376  0.02120  1.0000
  Ca  Ca7       1.0  0.60447  0.09255  0.23853  1.0000
  Ca  Ca8       1.0  0.61526  0.33109  0.35164  1.0000
  Ca  Ca9       1.0  0.85758  0.09255  0.34495  1.0000
  Ca  Ca10      1.0  0.85206  0.34642  0.23848  1.0000
  Ca  Ca11      1.0  0.60357  0.59376  0.02120  1.0000
  Ca  Ca12      1.0  0.60357  0.84376  0.12946  1.0000
  Ca  Ca13      1.0  0.85357  0.59376  0.12946  1.0000
  Ca  Ca14      1.0  0.85357  0.84376  0.02120  1.0000
  Ca  Ca15      1.0  0.60257  0.59283  0.23776  1.0000
  Ca  Ca16      1.0  0.61322  0.84805  0.35153  1.0000
  Ca  Ca17      1.0  0.86039  0.60127  0.35255  1.0000
  Ca  Ca18      1.0  0.85286  0.84279  0.23748  1.0000
  Ca  Ca19      1.0  0.10053  0.84765  0.34467  1.0000
  Ca  Ca20      1.0  0.10211  0.59435  0.23820  1.0000
  Ca  Ca21      1.0  0.60357  0.34376  0.12946  1.0000
  Ca  Ca22      1.0  0.09451  0.34455  0.34659  1.0000
  Ca  Ca23      1.0  0.10357  0.34376  0.12946  1.0000
  Ca  Ca24      1.0  0.35357  0.09376  0.12946  1.0000
  Ca  Ca25      1.0  0.35357  0.84376  0.02120  1.0000
  Ca  Ca26      1.0  0.35357  0.59376  0.12946  1.0000
  Ca  Ca27      1.0  0.10357  0.84376  0.12946  1.0000
  Ca  Ca28      1.0  0.10357  0.59376  0.02120  1.0000
  Ca  Ca29      1.0  0.35357  0.34376  0.02120  1.0000
  Ca  Ca30      1.0  0.10403  0.09457  0.23779  1.0000
  Ca  Ca31      1.0  0.35375  0.08211  0.34575  1.0000
  Ca  Ca32      1.0  0.35499  0.34510  0.23819  1.0000
  O   O1        1.0  0.10498  0.34423  0.23991  1.0000
  O   O2        1.0  0.33284  0.48259  0.44308  1.0000
  O   O3        1.0  0.58973  0.58643  0.34174  1.0000
  O   O4        1.0  0.60377  0.84205  0.23974  1.0000
  O   O5        1.0  0.85102  0.59422  0.23887  1.0000
  O   O6        1.0  0.85870  0.85072  0.34048  1.0000
  O   O7        1.0  0.10357  0.84376  0.02120  1.0000
  O   O8        1.0  0.10357  0.59376  0.12946  1.0000
  O   O9        1.0  0.35390  0.84375  0.34559  1.0000
  O   O10       1.0  0.35357  0.34376  0.12946  1.0000
  O   O11       1.0  0.60357  0.59376  0.12946  1.0000
  O   O12       1.0  0.60357  0.84376  0.02120  1.0000
  O   O13       1.0  0.85357  0.59376  0.02120  1.0000
  O   O14       1.0  0.85357  0.84376  0.12946  1.0000
  O   O15       1.0  0.35357  0.09376  0.02120  1.0000
  O   O16       1.0  0.10528  0.09564  0.34459  1.0000
  O   O17       1.0  0.10357  0.34376  0.02120  1.0000
  O   O18       1.0  0.35240  0.59193  0.23935  1.0000
  O   O19       1.0  0.60552  0.08926  0.34511  1.0000
  O   O20       1.0  0.60239  0.34289  0.23967  1.0000
  O   O21       1.0  0.85413  0.09560  0.23839  1.0000
  O   O22       1.0  0.85572  0.34408  0.34423  1.0000
  O   O23       1.0  0.35357  0.84376  0.12946  1.0000
  O   O24       1.0  0.10543  0.84487  0.23841  1.0000
  O   O25       1.0  0.09854  0.59684  0.34314  1.0000
  O   O26       1.0  0.35416  0.33144  0.34629  1.0000
  O   O27       1.0  0.60357  0.09376  0.12946  1.0000
  O   O28       1.0  0.60357  0.34376  0.02120  1.0000
  O   O29       1.0  0.85357  0.09376  0.02120  1.0000
  O   O30       1.0  0.85357  0.34376  0.12946  1.0000
  O   O31       1.0  0.35438  0.09394  0.23978  1.0000
  O   O32       1.0  0.10357  0.09376  0.12946  1.0000
  O   O33       1.0  0.35357  0.59376  0.02120  1.0000
  O   O34       1.0  0.71672  0.66907  0.43538  1.0000
  O   O35       1.0  0.59586  0.40169  0.45594  1.0000
  H   H1        1.0  0.34447  0.36540  0.38916  1.0000
  H   H2        1.0  0.27567  0.48761  0.47901  1.0000
  H   H3        1.0  0.72843  0.70705  0.47555  1.0000
  H   H4        1.0  0.61049  0.60297  0.38523  1.0000
  H   H5        1.0  0.64902  0.49006  0.45943  1.0000
  H   H6        1.0  0.49517  0.43228  0.45982  1.0000
